version 3
run General-0-20250519-10:59:58-25586
attr configname General
attr datetime 20250519-10:59:58
attr datetimef 20250519-105958
attr experiment General
attr inifile omnetpp.ini
attr iterationvars ""
attr iterationvarsd ""
attr iterationvarsf ""
attr measurement ""
attr network omnet_project.networks.SimpleNetwork
attr processid 25586
attr repetition 0
attr replication #0
attr resultdir results
attr runnumber 0
attr seedset 0
config scheduler-class MangoScheduler
config network omnet_project.networks.SimpleNetwork
config **.client.numApps 1
config **.client.app[*].typename TcpSessionApp
config **.client.app[*].active true
config **.client.app[*].localAddress "\"\""
config **.client.app[*].localPort -1
config **.client.app[*].connectAddress "\"server\""
config **.client.app[*].connectPort 1000
config **.client.app[*].tOpen 1.0s
config **.client.app[*].tSend 1.1s
config **.client.app[*].sendBytes 1MiB
config **.client.app[*].sendScript "\"\""
config **.client.app[*].tClose 0s
config **.server.numApps 1
config **.server.app[*].typename TcpEchoApp
config **.server.app[0].localAddress "\"\""
config **.server.app[0].localPort 1000
config **.server.app[0].echoFactor 2.0
config **.server.app[0].echoDelay 0s
config **.eth[*].duplexMode true
config **.ppp[*].queue.typename DropTailQueue
config **.ppp[*].queue.packetCapacity 10
config **.eth[*].queue.typename EthernetQosQueue
config **.eth[*].queue.dataQueue.typename DropTailQueue
config **.eth[*].queue.dataQueue.packetCapacity 10
config **.switch*.bridging.typename MacRelayUnit

par SimpleNetwork.client.ethg$o[0].channel typename "\"omnet_project.networks.SimpleNetwork.ethline\""
par SimpleNetwork.client.ethg$o[0].channel disabled false
attr mutable ""
par SimpleNetwork.client.ethg$o[0].channel delay 5e-08s
attr mutable ""
attr unit s
par SimpleNetwork.client.ethg$o[0].channel datarate 1e+08bps
attr mutable ""
attr unit bps
par SimpleNetwork.client.ethg$o[0].channel ber 0
attr mutable ""
par SimpleNetwork.client.ethg$o[0].channel per 0
attr mutable ""
par SimpleNetwork.switch.ethg$o[0].channel typename "\"omnet_project.networks.SimpleNetwork.ethline\""
par SimpleNetwork.switch.ethg$o[0].channel disabled false
attr mutable ""
par SimpleNetwork.switch.ethg$o[0].channel delay 5e-08s
attr mutable ""
attr unit s
par SimpleNetwork.switch.ethg$o[0].channel datarate 1e+08bps
attr mutable ""
attr unit bps
par SimpleNetwork.switch.ethg$o[0].channel ber 0
attr mutable ""
par SimpleNetwork.switch.ethg$o[0].channel per 0
attr mutable ""
par SimpleNetwork.switch.ethg$o[1].channel typename "\"omnet_project.networks.SimpleNetwork.ethline\""
par SimpleNetwork.switch.ethg$o[1].channel disabled false
attr mutable ""
par SimpleNetwork.switch.ethg$o[1].channel delay 5e-08s
attr mutable ""
attr unit s
par SimpleNetwork.switch.ethg$o[1].channel datarate 1e+08bps
attr mutable ""
attr unit bps
par SimpleNetwork.switch.ethg$o[1].channel ber 0
attr mutable ""
par SimpleNetwork.switch.ethg$o[1].channel per 0
attr mutable ""
par SimpleNetwork.host1.ethg$o[0].channel typename "\"omnet_project.networks.SimpleNetwork.ethline\""
par SimpleNetwork.host1.ethg$o[0].channel disabled false
attr mutable ""
par SimpleNetwork.host1.ethg$o[0].channel delay 5e-08s
attr mutable ""
attr unit s
par SimpleNetwork.host1.ethg$o[0].channel datarate 1e+08bps
attr mutable ""
attr unit bps
par SimpleNetwork.host1.ethg$o[0].channel ber 0
attr mutable ""
par SimpleNetwork.host1.ethg$o[0].channel per 0
attr mutable ""
par SimpleNetwork.switch.ethg$o[2].channel typename "\"omnet_project.networks.SimpleNetwork.ethline\""
par SimpleNetwork.switch.ethg$o[2].channel disabled false
attr mutable ""
par SimpleNetwork.switch.ethg$o[2].channel delay 5e-08s
attr mutable ""
attr unit s
par SimpleNetwork.switch.ethg$o[2].channel datarate 1e+08bps
attr mutable ""
attr unit bps
par SimpleNetwork.switch.ethg$o[2].channel ber 0
attr mutable ""
par SimpleNetwork.switch.ethg$o[2].channel per 0
attr mutable ""
par SimpleNetwork.host2.ethg$o[0].channel typename "\"omnet_project.networks.SimpleNetwork.ethline\""
par SimpleNetwork.host2.ethg$o[0].channel disabled false
attr mutable ""
par SimpleNetwork.host2.ethg$o[0].channel delay 5e-08s
attr mutable ""
attr unit s
par SimpleNetwork.host2.ethg$o[0].channel datarate 1e+08bps
attr mutable ""
attr unit bps
par SimpleNetwork.host2.ethg$o[0].channel ber 0
attr mutable ""
par SimpleNetwork.host2.ethg$o[0].channel per 0
attr mutable ""
par SimpleNetwork.router.ethg$o[0].channel typename "\"omnet_project.networks.SimpleNetwork.ethline\""
par SimpleNetwork.router.ethg$o[0].channel disabled false
attr mutable ""
par SimpleNetwork.router.ethg$o[0].channel delay 5e-08s
attr mutable ""
attr unit s
par SimpleNetwork.router.ethg$o[0].channel datarate 1e+08bps
attr mutable ""
attr unit bps
par SimpleNetwork.router.ethg$o[0].channel ber 0
attr mutable ""
par SimpleNetwork.router.ethg$o[0].channel per 0
attr mutable ""
par SimpleNetwork.switch.ethg$o[3].channel typename "\"omnet_project.networks.SimpleNetwork.ethline\""
par SimpleNetwork.switch.ethg$o[3].channel disabled false
attr mutable ""
par SimpleNetwork.switch.ethg$o[3].channel delay 5e-08s
attr mutable ""
attr unit s
par SimpleNetwork.switch.ethg$o[3].channel datarate 1e+08bps
attr mutable ""
attr unit bps
par SimpleNetwork.switch.ethg$o[3].channel ber 0
attr mutable ""
par SimpleNetwork.switch.ethg$o[3].channel per 0
attr mutable ""
par SimpleNetwork.router.pppg$o[0].channel typename "\"omnet_project.networks.SimpleNetwork.fiberline\""
par SimpleNetwork.router.pppg$o[0].channel disabled false
attr mutable ""
par SimpleNetwork.router.pppg$o[0].channel delay 1e-06s
attr mutable ""
attr unit s
par SimpleNetwork.router.pppg$o[0].channel datarate 5.12e+08bps
attr mutable ""
attr unit bps
par SimpleNetwork.router.pppg$o[0].channel ber 0
attr mutable ""
par SimpleNetwork.router.pppg$o[0].channel per 0
attr mutable ""
par SimpleNetwork.net.pppg$o[0].channel typename "\"omnet_project.networks.SimpleNetwork.fiberline\""
par SimpleNetwork.net.pppg$o[0].channel disabled false
attr mutable ""
par SimpleNetwork.net.pppg$o[0].channel delay 1e-06s
attr mutable ""
attr unit s
par SimpleNetwork.net.pppg$o[0].channel datarate 5.12e+08bps
attr mutable ""
attr unit bps
par SimpleNetwork.net.pppg$o[0].channel ber 0
attr mutable ""
par SimpleNetwork.net.pppg$o[0].channel per 0
attr mutable ""
par SimpleNetwork.server.pppg$o[0].channel typename "\"omnet_project.networks.SimpleNetwork.fiberline\""
par SimpleNetwork.server.pppg$o[0].channel disabled false
attr mutable ""
par SimpleNetwork.server.pppg$o[0].channel delay 1e-06s
attr mutable ""
attr unit s
par SimpleNetwork.server.pppg$o[0].channel datarate 5.12e+08bps
attr mutable ""
attr unit bps
par SimpleNetwork.server.pppg$o[0].channel ber 0
attr mutable ""
par SimpleNetwork.server.pppg$o[0].channel per 0
attr mutable ""
par SimpleNetwork.net.pppg$o[1].channel typename "\"omnet_project.networks.SimpleNetwork.fiberline\""
par SimpleNetwork.net.pppg$o[1].channel disabled false
attr mutable ""
par SimpleNetwork.net.pppg$o[1].channel delay 1e-06s
attr mutable ""
attr unit s
par SimpleNetwork.net.pppg$o[1].channel datarate 5.12e+08bps
attr mutable ""
attr unit bps
par SimpleNetwork.net.pppg$o[1].channel ber 0
attr mutable ""
par SimpleNetwork.net.pppg$o[1].channel per 0
attr mutable ""
par SimpleNetwork.client.ethg$i[0].channel typename "\"ned.IdealChannel\""
par SimpleNetwork.client.eth[0].phys$o.channel typename "\"ned.IdealChannel\""
par SimpleNetwork.client.interfaceTable typename "\"inet.networklayer.common.InterfaceTable\""
par SimpleNetwork.client.interfaceTable displayAddresses false
par SimpleNetwork.client.cb typename "\"inet.common.MessageDispatcher\""
par SimpleNetwork.client.cb displayStringTextFormat "\"processed %p pk (%l)\""
par SimpleNetwork.client.cb forwardServiceRegistration true
par SimpleNetwork.client.cb forwardProtocolRegistration true
par SimpleNetwork.client.bl typename "\"inet.common.MessageDispatcher\""
par SimpleNetwork.client.bl displayStringTextFormat "\"processed %p pk (%l)\""
par SimpleNetwork.client.bl forwardServiceRegistration true
par SimpleNetwork.client.bl forwardProtocolRegistration true
par SimpleNetwork.client.ethernet typename "\"inet.linklayer.ethernet.basic.EthernetEncapsulation\""
par SimpleNetwork.client.ethernet registerProtocol true
par SimpleNetwork.client.ethernet interfaceTableModule "\"SimpleNetwork.client.interfaceTable\""
par SimpleNetwork.client.ethernet fcsMode "\"declared\""
attr enum declared,computed
par SimpleNetwork.client.ethernet stopOperationExtraTime -1s
attr unit s
par SimpleNetwork.client.ethernet stopOperationTimeout 2s
attr unit s
scalar SimpleNetwork.client.ethernet pauseSent:count 0
attr recordingmode count
attr title "pause sent, count"
scalar SimpleNetwork.client.ethernet pauseSent:sum 0
attr recordingmode sum
attr title "pause sent, sum"
scalar SimpleNetwork.client.ethernet decapPk:count 5896
attr interpolationmode none
attr recordingmode count
attr source decapPk
attr title "packets decapsulated, count"
scalar SimpleNetwork.client.ethernet decapPk:sum(packetBytes) 2351780
attr interpolationmode none
attr recordingmode sum(packetBytes)
attr source decapPk
attr title "packets decapsulated, sum(packetBytes)"
scalar SimpleNetwork.client.ethernet encapPk:count 5937
attr interpolationmode none
attr recordingmode count
attr source encapPk
attr title "packets encapsulated, count"
scalar SimpleNetwork.client.ethernet encapPk:sum(packetBytes) 1313384
attr interpolationmode none
attr recordingmode sum(packetBytes)
attr source encapPk
attr title "packets encapsulated, sum(packetBytes)"
par SimpleNetwork.client.li typename "\"inet.common.MessageDispatcher\""
par SimpleNetwork.client.li displayStringTextFormat "\"processed %p pk (%l)\""
par SimpleNetwork.client.li forwardServiceRegistration true
par SimpleNetwork.client.li forwardProtocolRegistration true
par SimpleNetwork.client.lo[0].upperLayerIn.channel typename "\"ned.IdealChannel\""
par SimpleNetwork.client.lo[0].lo.upperLayerOut.channel typename "\"ned.IdealChannel\""
par SimpleNetwork.client.lo[0].lo typename "\"inet.linklayer.loopback.Loopback\""
par SimpleNetwork.client.lo[0].lo interfaceTableModule "\"SimpleNetwork.client.interfaceTable\""
par SimpleNetwork.client.lo[0].lo mtu 4470B
attr unit B
scalar SimpleNetwork.client.lo[0].lo rcvdPkFromHl:count 0
attr interpolationmode none
attr recordingmode count
attr source packetReceivedFromUpper
attr title "packets received from higher layer, count"
scalar SimpleNetwork.client.lo[0].lo rcvdPkFromHl:sum(packetBytes) 0
attr interpolationmode none
attr recordingmode sum(packetBytes)
attr source packetReceivedFromUpper
attr title "packets received from higher layer, sum(packetBytes)"
scalar SimpleNetwork.client.lo[0].lo passedUpPk:count 0
attr interpolationmode none
attr recordingmode count
attr source packetSentToUpper
attr title "packets passed to higher layer, count"
scalar SimpleNetwork.client.lo[0].lo passedUpPk:sum(packetBytes) 0
attr interpolationmode none
attr recordingmode sum(packetBytes)
attr source packetSentToUpper
attr title "packets passed to higher layer, sum(packetBytes)"
par SimpleNetwork.client.lo[0] typename "\"inet.linklayer.loopback.LoopbackInterface\""
par SimpleNetwork.client.lo[0] displayStringTextFormat "\"%a (%i)\\n%m\""
par SimpleNetwork.client.lo[0] recordPcap false
par SimpleNetwork.client.lo[0] numPcapRecorders 0
par SimpleNetwork.client.lo[0] interfaceTableModule "\"SimpleNetwork.client.interfaceTable\""
scalar SimpleNetwork.client.lo[0] packetDropInterfaceDown:count 0
attr interpolationmode none
attr recordingmode count
attr source packetDropReasonIsInterfaceDown(packetDropped)
attr title "packet drops: interface down, count"
scalar SimpleNetwork.client.lo[0] packetDropInterfaceDown:sum(packetBytes) 0
attr interpolationmode none
attr recordingmode sum(packetBytes)
attr source packetDropReasonIsInterfaceDown(packetDropped)
attr title "packet drops: interface down, sum(packetBytes)"
scalar SimpleNetwork.client.lo[0] packetDropNoCarrier:count 0
attr interpolationmode none
attr recordingmode count
attr source packetDropReasonIsNoCarrier(packetDropped)
attr title "packet drops: no carrier, count"
scalar SimpleNetwork.client.lo[0] packetDropNoCarrier:sum(packetBytes) 0
attr interpolationmode none
attr recordingmode sum(packetBytes)
attr source packetDropReasonIsNoCarrier(packetDropped)
attr title "packet drops: no carrier, sum(packetBytes)"
par SimpleNetwork.client.eth[0].mac.phys$o.channel typename "\"ned.IdealChannel\""
par SimpleNetwork.client.eth[0].phys$i.channel typename "\"ned.IdealChannel\""
par SimpleNetwork.client.eth[0].upperLayerIn.channel typename "\"ned.IdealChannel\""
par SimpleNetwork.client.eth[0].mac.upperLayerOut.channel typename "\"ned.IdealChannel\""
par SimpleNetwork.client.eth[0].queue.classifier typename "\"inet.linklayer.ethernet.common.EthernetFrameClassifier\""
par SimpleNetwork.client.eth[0].queue.classifier displayStringTextFormat "\"classified %p pk (%l)\""
par SimpleNetwork.client.eth[0].queue.classifier reverseOrder false
scalar SimpleNetwork.client.eth[0].queue.classifier packets:count 5937
attr recordingmode count
attr source packetPushed
attr title "packets, count"
attr unit pk
scalar SimpleNetwork.client.eth[0].queue.classifier packetLengths:sum 11362000
attr interpolationmode none
attr recordingmode sum
attr source packetLength(packetPushed)
attr title "packet lengths, sum"
attr unit b
statistic SimpleNetwork.client.eth[0].queue.classifier packetLengths:histogram
field count 5937
field mean 1913.7611588344
field stddev 2028.5120043286
field min 368
field max 4752
field sum 11362000
field sqrsum 46169968896
attr interpolationmode none
attr recordingmode histogram
attr source packetLength(packetPushed)
attr title "packet lengths"
attr unit b
bin	-inf	0
bin	0	0
bin	100	0
bin	200	0
bin	300	1
bin	400	3928
bin	500	0
bin	600	0
bin	700	0
bin	800	0
bin	900	0
bin	1000	0
bin	1100	0
bin	1200	0
bin	1300	0
bin	1400	0
bin	1500	0
bin	1600	0
bin	1700	1
bin	1800	0
bin	1900	0
bin	2000	0
bin	2100	0
bin	2200	0
bin	2300	0
bin	2400	0
bin	2500	0
bin	2600	0
bin	2700	0
bin	2800	0
bin	2900	0
bin	3000	0
bin	3100	0
bin	3200	0
bin	3300	0
bin	3400	0
bin	3500	0
bin	3600	0
bin	3700	0
bin	3800	0
bin	3900	0
bin	4000	0
bin	4100	0
bin	4200	0
bin	4300	0
bin	4400	0
bin	4500	0
bin	4600	0
bin	4700	2007
bin	4800	0
bin	4900	0
bin	5000	0
bin	5100	0
bin	5200	0
bin	5300	0
bin	5400	0
bin	5500	0
bin	5600	0
bin	5700	0
bin	5800	0
bin	5900	0
par SimpleNetwork.client.eth[0].queue.pauseQueue typename "\"inet.queueing.queue.DropTailQueue\""
par SimpleNetwork.client.eth[0].queue.pauseQueue displayStringTextFormat "\"contains %p pk (%l) pushed %u\\npulled %o removed %r dropped %d\""
par SimpleNetwork.client.eth[0].queue.pauseQueue packetCapacity 100
par SimpleNetwork.client.eth[0].queue.pauseQueue dataCapacity -1b
attr unit b
par SimpleNetwork.client.eth[0].queue.pauseQueue dropperClass "\"inet::queueing::PacketAtCollectionEndDropper\""
par SimpleNetwork.client.eth[0].queue.pauseQueue comparatorClass "\"\""
par SimpleNetwork.client.eth[0].queue.pauseQueue bufferModule "\"\""
scalar SimpleNetwork.client.eth[0].queue.pauseQueue queueLength:last nan
attr autoWarmupFilter false
attr interpolationmode sample-hold
attr recordingmode last
attr source "warmup(atomic(constant0(packetPushEnded) + count(packetPushStarted) - count(packetPulled) - count(packetRemoved) - count(packetDropped)))"
attr title "queue length, last"
attr unit pk
scalar SimpleNetwork.client.eth[0].queue.pauseQueue queueLength:max -nan
attr autoWarmupFilter false
attr interpolationmode sample-hold
attr recordingmode max
attr source "warmup(atomic(constant0(packetPushEnded) + count(packetPushStarted) - count(packetPulled) - count(packetRemoved) - count(packetDropped)))"
attr title "queue length, max"
attr unit pk
scalar SimpleNetwork.client.eth[0].queue.pauseQueue queueLength:timeavg -nan
attr autoWarmupFilter false
attr interpolationmode sample-hold
attr recordingmode timeavg
attr source "warmup(atomic(constant0(packetPushEnded) + count(packetPushStarted) - count(packetPulled) - count(packetRemoved) - count(packetDropped)))"
attr title "queue length, timeavg"
attr unit pk
scalar SimpleNetwork.client.eth[0].queue.pauseQueue queueBitLength:last nan
attr autoWarmupFilter false
attr interpolationmode sample-hold
attr recordingmode last
attr source "warmup(atomic(constant0(packetPushEnded) + sum(packetLength(packetPushStarted)) - sum(packetLength(packetPulled)) - sum(packetLength(packetRemoved)) - sum(packetLength(packetDropped))))"
attr title "queue bit length, last"
attr unit b
scalar SimpleNetwork.client.eth[0].queue.pauseQueue queueBitLength:max -nan
attr autoWarmupFilter false
attr interpolationmode sample-hold
attr recordingmode max
attr source "warmup(atomic(constant0(packetPushEnded) + sum(packetLength(packetPushStarted)) - sum(packetLength(packetPulled)) - sum(packetLength(packetRemoved)) - sum(packetLength(packetDropped))))"
attr title "queue bit length, max"
attr unit b
scalar SimpleNetwork.client.eth[0].queue.pauseQueue queueBitLength:timeavg -nan
attr autoWarmupFilter false
attr interpolationmode sample-hold
attr recordingmode timeavg
attr source "warmup(atomic(constant0(packetPushEnded) + sum(packetLength(packetPushStarted)) - sum(packetLength(packetPulled)) - sum(packetLength(packetRemoved)) - sum(packetLength(packetDropped))))"
attr title "queue bit length, timeavg"
attr unit b
statistic SimpleNetwork.client.eth[0].queue.pauseQueue queueingTime:histogram
field count 0
field mean -nan
field stddev -nan
field min -nan
field max -nan
field sum 0
field sqrsum 0
attr interpolationmode none
attr recordingmode histogram
attr source queueingTime(packetPulled)
attr title "queueing times"
attr unit s
bin	-inf	0
bin	0	0
bin	1	0
scalar SimpleNetwork.client.eth[0].queue.pauseQueue outgoingPackets:count 0
attr recordingmode count
attr source packetPulled
attr title "outgoing packets, count"
attr unit pk
scalar SimpleNetwork.client.eth[0].queue.pauseQueue outgoingPacketLengths:sum 0
attr interpolationmode none
attr recordingmode sum
attr source packetLength(packetPulled)
attr title "outgoing packet lengths, sum"
attr unit b
statistic SimpleNetwork.client.eth[0].queue.pauseQueue outgoingPacketLengths:histogram
field count 0
field mean -nan
field stddev -nan
field min -nan
field max -nan
field sum 0
field sqrsum 0
attr interpolationmode none
attr recordingmode histogram
attr source packetLength(packetPulled)
attr title "outgoing packet lengths"
attr unit b
bin	-inf	0
bin	0	0
bin	1	0
statistic SimpleNetwork.client.eth[0].queue.pauseQueue flowQueueingTime:histogram
field count 0
field mean -nan
field stddev -nan
field min -nan
field max -nan
field sum 0
field sqrsum 0
attr interpolationmode none
attr recordingmode histogram
attr source queueingTime(demuxFlow(packetPulled))
attr title "flow queueing times"
attr unit s
bin	-inf	0
bin	0	0
bin	1	0
scalar SimpleNetwork.client.eth[0].queue.pauseQueue incomingPackets:count 0
attr recordingmode count
attr source packetPushStarted
attr title "incoming packets, count"
attr unit pk
scalar SimpleNetwork.client.eth[0].queue.pauseQueue incomingPacketLengths:sum 0
attr interpolationmode none
attr recordingmode sum
attr source packetLength(packetPushStarted)
attr title "incoming packet lengths, sum"
attr unit b
statistic SimpleNetwork.client.eth[0].queue.pauseQueue incomingPacketLengths:histogram
field count 0
field mean -nan
field stddev -nan
field min -nan
field max -nan
field sum 0
field sqrsum 0
attr interpolationmode none
attr recordingmode histogram
attr source packetLength(packetPushStarted)
attr title "incoming packet lengths"
attr unit b
bin	-inf	0
bin	0	0
bin	1	0
scalar SimpleNetwork.client.eth[0].queue.pauseQueue droppedPacketsQueueOverflow:count 0
attr interpolationmode none
attr recordingmode count
attr source packetDropReasonIsQueueOverflow(packetDropped)
attr title "dropped packets: queue overflow, count"
attr unit pk
scalar SimpleNetwork.client.eth[0].queue.pauseQueue droppedPacketLengthsQueueOverflow:sum 0
attr interpolationmode none
attr recordingmode sum
attr source packetLength(packetDropReasonIsQueueOverflow(packetDropped))
attr title "dropped packet lengths: queue overflow, sum"
attr unit b
par SimpleNetwork.client.eth[0].queue.dataQueue typename "\"inet.queueing.queue.DropTailQueue\""
par SimpleNetwork.client.eth[0].queue.dataQueue displayStringTextFormat "\"contains %p pk (%l) pushed %u\\npulled %o removed %r dropped %d\""
par SimpleNetwork.client.eth[0].queue.dataQueue packetCapacity 10
par SimpleNetwork.client.eth[0].queue.dataQueue dataCapacity -1b
attr unit b
par SimpleNetwork.client.eth[0].queue.dataQueue dropperClass "\"inet::queueing::PacketAtCollectionEndDropper\""
par SimpleNetwork.client.eth[0].queue.dataQueue comparatorClass "\"\""
par SimpleNetwork.client.eth[0].queue.dataQueue bufferModule "\"\""
scalar SimpleNetwork.client.eth[0].queue.dataQueue queueLength:last 0
attr autoWarmupFilter false
attr interpolationmode sample-hold
attr recordingmode last
attr source "warmup(atomic(constant0(packetPushEnded) + count(packetPushStarted) - count(packetPulled) - count(packetRemoved) - count(packetDropped)))"
attr title "queue length, last"
attr unit pk
scalar SimpleNetwork.client.eth[0].queue.dataQueue queueLength:max 10
attr autoWarmupFilter false
attr interpolationmode sample-hold
attr recordingmode max
attr source "warmup(atomic(constant0(packetPushEnded) + count(packetPushStarted) - count(packetPulled) - count(packetRemoved) - count(packetDropped)))"
attr title "queue length, max"
attr unit pk
scalar SimpleNetwork.client.eth[0].queue.dataQueue queueLength:timeavg 0.00263099313696
attr autoWarmupFilter false
attr interpolationmode sample-hold
attr recordingmode timeavg
attr source "warmup(atomic(constant0(packetPushEnded) + count(packetPushStarted) - count(packetPulled) - count(packetRemoved) - count(packetDropped)))"
attr title "queue length, timeavg"
attr unit pk
scalar SimpleNetwork.client.eth[0].queue.dataQueue queueBitLength:last 0
attr autoWarmupFilter false
attr interpolationmode sample-hold
attr recordingmode last
attr source "warmup(atomic(constant0(packetPushEnded) + sum(packetLength(packetPushStarted)) - sum(packetLength(packetPulled)) - sum(packetLength(packetRemoved)) - sum(packetLength(packetDropped))))"
attr title "queue bit length, last"
attr unit b
scalar SimpleNetwork.client.eth[0].queue.dataQueue queueBitLength:max 47520
attr autoWarmupFilter false
attr interpolationmode sample-hold
attr recordingmode max
attr source "warmup(atomic(constant0(packetPushEnded) + sum(packetLength(packetPushStarted)) - sum(packetLength(packetPulled)) - sum(packetLength(packetRemoved)) - sum(packetLength(packetDropped))))"
attr title "queue bit length, max"
attr unit b
scalar SimpleNetwork.client.eth[0].queue.dataQueue queueBitLength:timeavg 11.775855652829
attr autoWarmupFilter false
attr interpolationmode sample-hold
attr recordingmode timeavg
attr source "warmup(atomic(constant0(packetPushEnded) + sum(packetLength(packetPushStarted)) - sum(packetLength(packetPulled)) - sum(packetLength(packetRemoved)) - sum(packetLength(packetDropped))))"
attr title "queue bit length, timeavg"
attr unit b
statistic SimpleNetwork.client.eth[0].queue.dataQueue queueingTime:histogram
field count 5897
field mean 0.00010968166970494
field stddev 0.0001642917887847
field min 0
field max 0.0004912
field sum 0.64679280625001
field sqrsum 0.00023008491976144
attr interpolationmode none
attr recordingmode histogram
attr source queueingTime(packetPulled)
attr title "queueing times"
attr unit s
bin	-inf	0
bin	0	3741
bin	1e-05	11
bin	2e-05	15
bin	3e-05	10
bin	4e-05	73
bin	5e-05	12
bin	6e-05	17
bin	7e-05	17
bin	8e-05	21
bin	9e-05	51
bin	0.0001	28
bin	0.00011	6
bin	0.00012	26
bin	0.00013	20
bin	0.00014	49
bin	0.00015	6
bin	0.00016	34
bin	0.00017	19
bin	0.00018	25
bin	0.00019	53
bin	0.0002	7
bin	0.00021	152
bin	0.00022	7
bin	0.00023	29
bin	0.00024	24
bin	0.00025	10
bin	0.00026	203
bin	0.00027	13
bin	0.00028	11
bin	0.00029	9
bin	0.0003	13
bin	0.00031	202
bin	0.00032	0
bin	0.00033	7
bin	0.00034	7
bin	0.00035	249
bin	0.00036	5
bin	0.00037	2
bin	0.00038	7
bin	0.00039	3
bin	0.0004	223
bin	0.00041	3
bin	0.00042	2
bin	0.00043	1
bin	0.00044	2
bin	0.00045	467
bin	0.00046	1
bin	0.00047	2
bin	0.00048	1
bin	0.00049	1
bin	0.0005	0
scalar SimpleNetwork.client.eth[0].queue.dataQueue outgoingPackets:count 5897
attr recordingmode count
attr source packetPulled
attr title "outgoing packets, count"
attr unit pk
scalar SimpleNetwork.client.eth[0].queue.dataQueue outgoingPacketLengths:sum 11171920
attr interpolationmode none
attr recordingmode sum
attr source packetLength(packetPulled)
attr title "outgoing packet lengths, sum"
attr unit b
statistic SimpleNetwork.client.eth[0].queue.dataQueue outgoingPacketLengths:histogram
field count 5897
field mean 1894.5090724097
field stddev 2021.8197861297
field min 368
field max 4752
field sum 11171920
field sqrsum 45266708736
attr interpolationmode none
attr recordingmode histogram
attr source packetLength(packetPulled)
attr title "outgoing packet lengths"
attr unit b
bin	-inf	0
bin	0	0
bin	100	0
bin	200	0
bin	300	1
bin	400	3928
bin	500	0
bin	600	0
bin	700	0
bin	800	0
bin	900	0
bin	1000	0
bin	1100	0
bin	1200	0
bin	1300	0
bin	1400	0
bin	1500	0
bin	1600	0
bin	1700	1
bin	1800	0
bin	1900	0
bin	2000	0
bin	2100	0
bin	2200	0
bin	2300	0
bin	2400	0
bin	2500	0
bin	2600	0
bin	2700	0
bin	2800	0
bin	2900	0
bin	3000	0
bin	3100	0
bin	3200	0
bin	3300	0
bin	3400	0
bin	3500	0
bin	3600	0
bin	3700	0
bin	3800	0
bin	3900	0
bin	4000	0
bin	4100	0
bin	4200	0
bin	4300	0
bin	4400	0
bin	4500	0
bin	4600	0
bin	4700	1967
bin	4800	0
bin	4900	0
bin	5000	0
bin	5100	0
bin	5200	0
bin	5300	0
bin	5400	0
bin	5500	0
bin	5600	0
bin	5700	0
bin	5800	0
bin	5900	0
statistic SimpleNetwork.client.eth[0].queue.dataQueue flowQueueingTime:histogram
field count 0
field mean -nan
field stddev -nan
field min -nan
field max -nan
field sum 0
field sqrsum 0
attr interpolationmode none
attr recordingmode histogram
attr source queueingTime(demuxFlow(packetPulled))
attr title "flow queueing times"
attr unit s
bin	-inf	0
bin	0	0
bin	1	0
scalar SimpleNetwork.client.eth[0].queue.dataQueue incomingPackets:count 5937
attr recordingmode count
attr source packetPushStarted
attr title "incoming packets, count"
attr unit pk
scalar SimpleNetwork.client.eth[0].queue.dataQueue incomingPacketLengths:sum 11362000
attr interpolationmode none
attr recordingmode sum
attr source packetLength(packetPushStarted)
attr title "incoming packet lengths, sum"
attr unit b
statistic SimpleNetwork.client.eth[0].queue.dataQueue incomingPacketLengths:histogram
field count 5937
field mean 1913.7611588344
field stddev 2028.5120043286
field min 368
field max 4752
field sum 11362000
field sqrsum 46169968896
attr interpolationmode none
attr recordingmode histogram
attr source packetLength(packetPushStarted)
attr title "incoming packet lengths"
attr unit b
bin	-inf	0
bin	0	0
bin	100	0
bin	200	0
bin	300	1
bin	400	3928
bin	500	0
bin	600	0
bin	700	0
bin	800	0
bin	900	0
bin	1000	0
bin	1100	0
bin	1200	0
bin	1300	0
bin	1400	0
bin	1500	0
bin	1600	0
bin	1700	1
bin	1800	0
bin	1900	0
bin	2000	0
bin	2100	0
bin	2200	0
bin	2300	0
bin	2400	0
bin	2500	0
bin	2600	0
bin	2700	0
bin	2800	0
bin	2900	0
bin	3000	0
bin	3100	0
bin	3200	0
bin	3300	0
bin	3400	0
bin	3500	0
bin	3600	0
bin	3700	0
bin	3800	0
bin	3900	0
bin	4000	0
bin	4100	0
bin	4200	0
bin	4300	0
bin	4400	0
bin	4500	0
bin	4600	0
bin	4700	2007
bin	4800	0
bin	4900	0
bin	5000	0
bin	5100	0
bin	5200	0
bin	5300	0
bin	5400	0
bin	5500	0
bin	5600	0
bin	5700	0
bin	5800	0
bin	5900	0
scalar SimpleNetwork.client.eth[0].queue.dataQueue droppedPacketsQueueOverflow:count 40
attr interpolationmode none
attr recordingmode count
attr source packetDropReasonIsQueueOverflow(packetDropped)
attr title "dropped packets: queue overflow, count"
attr unit pk
scalar SimpleNetwork.client.eth[0].queue.dataQueue droppedPacketLengthsQueueOverflow:sum 190080
attr interpolationmode none
attr recordingmode sum
attr source packetLength(packetDropReasonIsQueueOverflow(packetDropped))
attr title "dropped packet lengths: queue overflow, sum"
attr unit b
par SimpleNetwork.client.eth[0].queue.scheduler typename "\"inet.queueing.scheduler.PriorityScheduler\""
par SimpleNetwork.client.eth[0].queue.scheduler displayStringTextFormat "\"scheduled %p pk (%l)\""
par SimpleNetwork.client.eth[0].queue.scheduler reverseOrder false
scalar SimpleNetwork.client.eth[0].queue.scheduler packets:count 5897
attr recordingmode count
attr source packetPulled
attr title "packets, count"
attr unit pk
scalar SimpleNetwork.client.eth[0].queue.scheduler packetLengths:sum 11171920
attr interpolationmode none
attr recordingmode sum
attr source packetLength(packetPulled)
attr title "packet lengths, sum"
attr unit b
statistic SimpleNetwork.client.eth[0].queue.scheduler packetLengths:histogram
field count 5897
field mean 1894.5090724097
field stddev 2021.8197861297
field min 368
field max 4752
field sum 11171920
field sqrsum 45266708736
attr interpolationmode none
attr recordingmode histogram
attr source packetLength(packetPulled)
attr title "packet lengths"
attr unit b
bin	-inf	0
bin	0	0
bin	100	0
bin	200	0
bin	300	1
bin	400	3928
bin	500	0
bin	600	0
bin	700	0
bin	800	0
bin	900	0
bin	1000	0
bin	1100	0
bin	1200	0
bin	1300	0
bin	1400	0
bin	1500	0
bin	1600	0
bin	1700	1
bin	1800	0
bin	1900	0
bin	2000	0
bin	2100	0
bin	2200	0
bin	2300	0
bin	2400	0
bin	2500	0
bin	2600	0
bin	2700	0
bin	2800	0
bin	2900	0
bin	3000	0
bin	3100	0
bin	3200	0
bin	3300	0
bin	3400	0
bin	3500	0
bin	3600	0
bin	3700	0
bin	3800	0
bin	3900	0
bin	4000	0
bin	4100	0
bin	4200	0
bin	4300	0
bin	4400	0
bin	4500	0
bin	4600	0
bin	4700	1967
bin	4800	0
bin	4900	0
bin	5000	0
bin	5100	0
bin	5200	0
bin	5300	0
bin	5400	0
bin	5500	0
bin	5600	0
bin	5700	0
bin	5800	0
bin	5900	0
par SimpleNetwork.client.eth[0].queue typename "\"inet.linklayer.ethernet.common.EthernetQosQueue\""
par SimpleNetwork.client.eth[0].queue displayStringTextFormat "\"contains %p pk (%l) pushed %u created %c\\n pulled %o removed %r dropped %d\""
par SimpleNetwork.client.eth[0].queue packetCapacity 1000
par SimpleNetwork.client.eth[0].queue dataCapacity -1b
attr unit b
par SimpleNetwork.client.eth[0].queue dropperClass "\"\""
scalar SimpleNetwork.client.eth[0].queue queueLength:last nan
attr autoWarmupFilter false
attr interpolationmode sample-hold
attr recordingmode last
attr source "warmup(atomic(constant0(localSignal(packetPushEnded)) + count(localSignal(packetPushStarted)) - count(localSignal(packetPulled)) - count(localSignal(packetRemoved)) - count(localSignal(packetDropped))))"
attr title "queue length, last"
attr unit pk
scalar SimpleNetwork.client.eth[0].queue queueLength:max -nan
attr autoWarmupFilter false
attr interpolationmode sample-hold
attr recordingmode max
attr source "warmup(atomic(constant0(localSignal(packetPushEnded)) + count(localSignal(packetPushStarted)) - count(localSignal(packetPulled)) - count(localSignal(packetRemoved)) - count(localSignal(packetDropped))))"
attr title "queue length, max"
attr unit pk
scalar SimpleNetwork.client.eth[0].queue queueLength:timeavg -nan
attr autoWarmupFilter false
attr interpolationmode sample-hold
attr recordingmode timeavg
attr source "warmup(atomic(constant0(localSignal(packetPushEnded)) + count(localSignal(packetPushStarted)) - count(localSignal(packetPulled)) - count(localSignal(packetRemoved)) - count(localSignal(packetDropped))))"
attr title "queue length, timeavg"
attr unit pk
scalar SimpleNetwork.client.eth[0].queue queueBitLength:last nan
attr autoWarmupFilter false
attr interpolationmode sample-hold
attr recordingmode last
attr source "warmup(atomic(constant0(localSignal(packetPushEnded)) + sum(packetLength(localSignal(packetPushStarted))) - sum(packetLength(localSignal(packetPulled))) - sum(packetLength(localSignal(packetRemoved))) - sum(packetLength(localSignal(packetDropped)))))"
attr title "queue bit length, last"
attr unit b
scalar SimpleNetwork.client.eth[0].queue queueBitLength:max -nan
attr autoWarmupFilter false
attr interpolationmode sample-hold
attr recordingmode max
attr source "warmup(atomic(constant0(localSignal(packetPushEnded)) + sum(packetLength(localSignal(packetPushStarted))) - sum(packetLength(localSignal(packetPulled))) - sum(packetLength(localSignal(packetRemoved))) - sum(packetLength(localSignal(packetDropped)))))"
attr title "queue bit length, max"
attr unit b
scalar SimpleNetwork.client.eth[0].queue queueBitLength:timeavg -nan
attr autoWarmupFilter false
attr interpolationmode sample-hold
attr recordingmode timeavg
attr source "warmup(atomic(constant0(localSignal(packetPushEnded)) + sum(packetLength(localSignal(packetPushStarted))) - sum(packetLength(localSignal(packetPulled))) - sum(packetLength(localSignal(packetRemoved))) - sum(packetLength(localSignal(packetDropped)))))"
attr title "queue bit length, timeavg"
attr unit b
statistic SimpleNetwork.client.eth[0].queue queueingTime:histogram
field count 5897
field mean 0
field stddev 0
field min 0
field max 0
field sum 0
field sqrsum 0
attr interpolationmode none
attr recordingmode histogram
attr source queueingTime(localSignal(packetPulled))
attr title "queueing times"
attr unit s
bin	-inf	0
bin	-0.5	0
bin	-0.48	0
bin	-0.46	0
bin	-0.44	0
bin	-0.42	0
bin	-0.4	0
bin	-0.38	0
bin	-0.36	0
bin	-0.34	0
bin	-0.32	0
bin	-0.3	0
bin	-0.28	0
bin	-0.26	0
bin	-0.24	0
bin	-0.22	0
bin	-0.2	0
bin	-0.18	0
bin	-0.16	0
bin	-0.14	0
bin	-0.12	0
bin	-0.1	0
bin	-0.08	0
bin	-0.06	0
bin	-0.04	0
bin	-0.02	0
bin	0	5897
bin	0.02	0
bin	0.04	0
bin	0.06	0
bin	0.08	0
bin	0.1	0
bin	0.12	0
bin	0.14	0
bin	0.16	0
bin	0.18	0
bin	0.2	0
bin	0.22	0
bin	0.24	0
bin	0.26	0
bin	0.28	0
bin	0.3	0
bin	0.32	0
bin	0.34	0
bin	0.36	0
bin	0.38	0
bin	0.4	0
bin	0.42	0
bin	0.44	0
bin	0.46	0
bin	0.48	0
bin	0.5	0
scalar SimpleNetwork.client.eth[0].queue outgoingPackets:count 5897
attr recordingmode count
attr source localSignal(packetPulled)
attr title "outgoing packets, count"
attr unit pk
scalar SimpleNetwork.client.eth[0].queue outgoingPacketLengths:sum 11171920
attr interpolationmode none
attr recordingmode sum
attr source packetLength(localSignal(packetPulled))
attr title "outgoing packet lengths, sum"
attr unit b
statistic SimpleNetwork.client.eth[0].queue outgoingPacketLengths:histogram
field count 5897
field mean 1894.5090724097
field stddev 2021.8197861297
field min 368
field max 4752
field sum 11171920
field sqrsum 45266708736
attr interpolationmode none
attr recordingmode histogram
attr source packetLength(localSignal(packetPulled))
attr title "outgoing packet lengths"
attr unit b
bin	-inf	0
bin	0	0
bin	100	0
bin	200	0
bin	300	1
bin	400	3928
bin	500	0
bin	600	0
bin	700	0
bin	800	0
bin	900	0
bin	1000	0
bin	1100	0
bin	1200	0
bin	1300	0
bin	1400	0
bin	1500	0
bin	1600	0
bin	1700	1
bin	1800	0
bin	1900	0
bin	2000	0
bin	2100	0
bin	2200	0
bin	2300	0
bin	2400	0
bin	2500	0
bin	2600	0
bin	2700	0
bin	2800	0
bin	2900	0
bin	3000	0
bin	3100	0
bin	3200	0
bin	3300	0
bin	3400	0
bin	3500	0
bin	3600	0
bin	3700	0
bin	3800	0
bin	3900	0
bin	4000	0
bin	4100	0
bin	4200	0
bin	4300	0
bin	4400	0
bin	4500	0
bin	4600	0
bin	4700	1967
bin	4800	0
bin	4900	0
bin	5000	0
bin	5100	0
bin	5200	0
bin	5300	0
bin	5400	0
bin	5500	0
bin	5600	0
bin	5700	0
bin	5800	0
bin	5900	0
statistic SimpleNetwork.client.eth[0].queue flowQueueingTime:histogram
field count 0
field mean -nan
field stddev -nan
field min -nan
field max -nan
field sum 0
field sqrsum 0
attr interpolationmode none
attr recordingmode histogram
attr source queueingTime(demuxFlow(localSignal(packetPulled)))
attr title "flow queueing times"
attr unit s
bin	-inf	0
bin	0	0
bin	1	0
scalar SimpleNetwork.client.eth[0].queue incomingPackets:count 0
attr recordingmode count
attr source localSignal(packetPushStarted)
attr title "incoming packets, count"
attr unit pk
scalar SimpleNetwork.client.eth[0].queue incomingPacketLengths:sum 0
attr interpolationmode none
attr recordingmode sum
attr source packetLength(localSignal(packetPushStarted))
attr title "incoming packet lengths, sum"
attr unit b
statistic SimpleNetwork.client.eth[0].queue incomingPacketLengths:histogram
field count 0
field mean -nan
field stddev -nan
field min -nan
field max -nan
field sum 0
field sqrsum 0
attr interpolationmode none
attr recordingmode histogram
attr source packetLength(localSignal(packetPushStarted))
attr title "incoming packet lengths"
attr unit b
bin	-inf	0
bin	0	0
bin	1	0
scalar SimpleNetwork.client.eth[0].queue droppedPacketsQueueOverflow:count 0
attr interpolationmode none
attr recordingmode count
attr source packetDropReasonIsQueueOverflow(localSignal(packetDropped))
attr title "dropped packets: queue overflow, count"
attr unit pk
scalar SimpleNetwork.client.eth[0].queue droppedPacketLengthsQueueOverflow:sum 0
attr interpolationmode none
attr recordingmode sum
attr source packetLength(packetDropReasonIsQueueOverflow(localSignal(packetDropped)))
attr title "dropped packet lengths: queue overflow, sum"
attr unit b
par SimpleNetwork.client.eth[0].mac typename "\"inet.linklayer.ethernet.basic.EthernetMac\""
par SimpleNetwork.client.eth[0].mac interfaceTableModule "\"SimpleNetwork.client.interfaceTable\""
par SimpleNetwork.client.eth[0].mac displayStringTextFormat "\"rate: %b\\nsent: %s, rcvd: %r\\nqueue: %q, drop: %d\""
par SimpleNetwork.client.eth[0].mac sendRawBytes false
par SimpleNetwork.client.eth[0].mac promiscuous false
par SimpleNetwork.client.eth[0].mac duplexMode true
par SimpleNetwork.client.eth[0].mac mtu 1500B
attr unit B
par SimpleNetwork.client.eth[0].mac fcsMode "\"declared\""
attr enum declared,computed
par SimpleNetwork.client.eth[0].mac stopOperationExtraTime -1s
attr unit s
par SimpleNetwork.client.eth[0].mac stopOperationTimeout 2s
attr unit s
scalar SimpleNetwork.client.eth[0].mac "simulated time" 246.83599142237
scalar SimpleNetwork.client.eth[0].mac full-duplex 1
scalar SimpleNetwork.client.eth[0].mac "frames/sec sent" 23.890357180163
scalar SimpleNetwork.client.eth[0].mac "frames/sec rcvd" 23.886305907112
scalar SimpleNetwork.client.eth[0].mac "bits/sec sent" 46024.795389586
scalar SimpleNetwork.client.eth[0].mac "bits/sec rcvd" 79661.251532616
scalar SimpleNetwork.client.eth[0].mac "rx channel idle (%)" 99.918810024889
scalar SimpleNetwork.client.eth[0].mac "rx channel utilization (%)" 0.081189975110672
scalar SimpleNetwork.client.eth[0].mac rxPausePkUnits:count 0
attr interpolationmode none
attr recordingmode count
attr title "pause units received, count"
scalar SimpleNetwork.client.eth[0].mac rxPausePkUnits:sum 0
attr interpolationmode none
attr recordingmode sum
attr title "pause units received, sum"
scalar SimpleNetwork.client.eth[0].mac txPausePkUnits:count 0
attr interpolationmode none
attr recordingmode count
attr title "pause units sent, count"
scalar SimpleNetwork.client.eth[0].mac txPausePkUnits:sum 0
attr interpolationmode none
attr recordingmode sum
attr title "pause units sent, sum"
scalar SimpleNetwork.client.eth[0].mac rxPkOk:count 5896
attr interpolationmode none
attr recordingmode count
attr source rxPkOk
attr title "packets received OK, count"
scalar SimpleNetwork.client.eth[0].mac rxPkOk:sum(packetBytes) 2457908
attr interpolationmode none
attr recordingmode sum(packetBytes)
attr source rxPkOk
attr title "packets received OK, sum(packetBytes)"
scalar SimpleNetwork.client.eth[0].mac txPk:count 5897
attr interpolationmode none
attr recordingmode count
attr source packetSentToLower
attr title "packets transmitted, count"
scalar SimpleNetwork.client.eth[0].mac txPk:sum(packetBytes) 1420072
attr interpolationmode none
attr recordingmode sum(packetBytes)
attr source packetSentToLower
attr title "packets transmitted, sum(packetBytes)"
scalar SimpleNetwork.client.eth[0].mac packetReceivedFromUpper:count 5897
attr interpolationmode none
attr recordingmode count
attr source packetReceivedFromUpper
attr title "packet bytes from higher layer, count"
scalar SimpleNetwork.client.eth[0].mac packetReceivedFromUpper:sum(packetBytes) 1396490
attr interpolationmode none
attr recordingmode sum(packetBytes)
attr source packetReceivedFromUpper
attr title "packet bytes from higher layer, sum(packetBytes)"
scalar SimpleNetwork.client.eth[0].mac passedUpPk:count 5896
attr interpolationmode none
attr recordingmode count
attr source packetSentToUpper
attr title "packets passed to higher layer, count"
scalar SimpleNetwork.client.eth[0].mac passedUpPk:sum(packetBytes) 2457908
attr interpolationmode none
attr recordingmode sum(packetBytes)
attr source packetSentToUpper
attr title "packets passed to higher layer, sum(packetBytes)"
scalar SimpleNetwork.client.eth[0].mac packetDropIncorrectlyReceived:count 0
attr interpolationmode none
attr recordingmode count
attr source packetDropReasonIsIncorrectlyReceived(packetDropped)
attr title "packet drop: incorrectly received, count"
scalar SimpleNetwork.client.eth[0].mac packetDropIncorrectlyReceived:sum(packetBytes) 0
attr interpolationmode none
attr recordingmode sum(packetBytes)
attr source packetDropReasonIsIncorrectlyReceived(packetDropped)
attr title "packet drop: incorrectly received, sum(packetBytes)"
scalar SimpleNetwork.client.eth[0].mac packetDropInterfaceDown:count 0
attr interpolationmode none
attr recordingmode count
attr source packetDropReasonIsInterfaceDown(packetDropped)
attr title "packet drop: interface down, count"
scalar SimpleNetwork.client.eth[0].mac packetDropInterfaceDown:sum(packetBytes) 0
attr interpolationmode none
attr recordingmode sum(packetBytes)
attr source packetDropReasonIsInterfaceDown(packetDropped)
attr title "packet drop: interface down, sum(packetBytes)"
scalar SimpleNetwork.client.eth[0].mac packetDropNotAddressedToUs:count 0
attr interpolationmode none
attr recordingmode count
attr source packetDropReasonIsNotAddressedToUs(packetDropped)
attr title "packet drop: not addressed to us, count"
scalar SimpleNetwork.client.eth[0].mac packetDropNotAddressedToUs:sum(packetBytes) 0
attr interpolationmode none
attr recordingmode sum(packetBytes)
attr source packetDropReasonIsNotAddressedToUs(packetDropped)
attr title "packet drop: not addressed to us, sum(packetBytes)"
par SimpleNetwork.client.eth[0] typename "\"inet.linklayer.ethernet.EthernetInterface\""
par SimpleNetwork.client.eth[0] displayStringTextFormat "\"%a (%i)\\n%m\""
par SimpleNetwork.client.eth[0] recordPcap false
par SimpleNetwork.client.eth[0] numPcapRecorders 0
par SimpleNetwork.client.eth[0] interfaceTableModule "\"SimpleNetwork.client.interfaceTable\""
par SimpleNetwork.client.eth[0] protocol "\"ethernetmac\""
par SimpleNetwork.client.eth[0] address "\"0A-AA-00-00-00-01\""
attr mutable ""
par SimpleNetwork.client.eth[0] duplexMode true
par SimpleNetwork.client.eth[0] csmacdSupport false
par SimpleNetwork.client.eth[0] bitrate 0bps
attr unit bps
par SimpleNetwork.client.eth[0] fcsMode "\"declared\""
attr enum declared,computed
scalar SimpleNetwork.client.eth[0] packetDropInterfaceDown:count 0
attr interpolationmode none
attr recordingmode count
attr source packetDropReasonIsInterfaceDown(packetDropped)
attr title "packet drops: interface down, count"
scalar SimpleNetwork.client.eth[0] packetDropInterfaceDown:sum(packetBytes) 0
attr interpolationmode none
attr recordingmode sum(packetBytes)
attr source packetDropReasonIsInterfaceDown(packetDropped)
attr title "packet drops: interface down, sum(packetBytes)"
scalar SimpleNetwork.client.eth[0] packetDropNoCarrier:count 0
attr interpolationmode none
attr recordingmode count
attr source packetDropReasonIsNoCarrier(packetDropped)
attr title "packet drops: no carrier, count"
scalar SimpleNetwork.client.eth[0] packetDropNoCarrier:sum(packetBytes) 0
attr interpolationmode none
attr recordingmode sum(packetBytes)
attr source packetDropReasonIsNoCarrier(packetDropped)
attr title "packet drops: no carrier, sum(packetBytes)"
par SimpleNetwork.client.ipv4.transportIn.channel typename "\"ned.IdealChannel\""
par SimpleNetwork.client.ipv4.up.out[0].channel typename "\"ned.IdealChannel\""
par SimpleNetwork.client.ipv4.lp.out[2].channel typename "\"ned.IdealChannel\""
par SimpleNetwork.client.ipv4.ifIn.channel typename "\"ned.IdealChannel\""
par SimpleNetwork.client.ipv4.configurator typename "\"inet.networklayer.configurator.ipv4.Ipv4NodeConfigurator\""
par SimpleNetwork.client.ipv4.configurator interfaceTableModule "\"SimpleNetwork.client.interfaceTable\""
par SimpleNetwork.client.ipv4.configurator routingTableModule "\"SimpleNetwork.client.ipv4.routingTable\""
par SimpleNetwork.client.ipv4.configurator networkConfiguratorModule "\"configurator\""
par SimpleNetwork.client.ipv4.configurator configureRoutingTable true
par SimpleNetwork.client.ipv4.routingTable typename "\"inet.networklayer.ipv4.Ipv4RoutingTable\""
par SimpleNetwork.client.ipv4.routingTable interfaceTableModule "\"SimpleNetwork.client.interfaceTable\""
par SimpleNetwork.client.ipv4.routingTable routerId "\"auto\""
par SimpleNetwork.client.ipv4.routingTable netmaskRoutes "\"*\""
par SimpleNetwork.client.ipv4.routingTable forwarding false
par SimpleNetwork.client.ipv4.routingTable multicastForwarding false
par SimpleNetwork.client.ipv4.routingTable useAdminDist false
par SimpleNetwork.client.ipv4.routingTable routingFile "\"\""
par SimpleNetwork.client.ipv4.natTable typename "\"inet.networklayer.ipv4.Ipv4NatTable\""
par SimpleNetwork.client.ipv4.natTable networkProtocolModule "\"^.ip\""
par SimpleNetwork.client.ipv4.natTable config "<config/> at content:1"
par SimpleNetwork.client.ipv4.up typename "\"inet.common.MessageDispatcher\""
par SimpleNetwork.client.ipv4.up displayStringTextFormat "\"processed %p pk (%l)\""
par SimpleNetwork.client.ipv4.up forwardServiceRegistration true
par SimpleNetwork.client.ipv4.up forwardProtocolRegistration true
par SimpleNetwork.client.ipv4.igmp typename "\"inet.networklayer.ipv4.Igmpv2\""
par SimpleNetwork.client.ipv4.igmp interfaceTableModule "\"SimpleNetwork.client.interfaceTable\""
par SimpleNetwork.client.ipv4.igmp routingTableModule "\"SimpleNetwork.client.ipv4.routingTable\""
par SimpleNetwork.client.ipv4.igmp crcMode "\"declared\""
attr enum declared,computed
par SimpleNetwork.client.ipv4.igmp enabled true
par SimpleNetwork.client.ipv4.igmp robustnessVariable 2
par SimpleNetwork.client.ipv4.igmp queryInterval 125s
attr unit s
par SimpleNetwork.client.ipv4.igmp queryResponseInterval 10s
attr unit s
par SimpleNetwork.client.ipv4.igmp groupMembershipInterval 260s
attr unit s
par SimpleNetwork.client.ipv4.igmp otherQuerierPresentInterval 255s
attr unit s
par SimpleNetwork.client.ipv4.igmp startupQueryInterval 31.25s
attr unit s
par SimpleNetwork.client.ipv4.igmp startupQueryCount 2
par SimpleNetwork.client.ipv4.igmp lastMemberQueryInterval 1s
attr unit s
par SimpleNetwork.client.ipv4.igmp lastMemberQueryCount 2
par SimpleNetwork.client.ipv4.igmp unsolicitedReportInterval 10s
attr unit s
par SimpleNetwork.client.ipv4.icmp typename "\"inet.networklayer.ipv4.Icmp\""
par SimpleNetwork.client.ipv4.icmp interfaceTableModule "\"SimpleNetwork.client.interfaceTable\""
par SimpleNetwork.client.ipv4.icmp routingTableModule "\"SimpleNetwork.client.ipv4.routingTable\""
par SimpleNetwork.client.ipv4.icmp crcMode "\"declared\""
attr enum declared,computed
attr mutable ""
par SimpleNetwork.client.ipv4.icmp quoteLength 8B
attr mutable ""
attr unit B
par SimpleNetwork.client.ipv4.mp typename "\"inet.common.MessageDispatcher\""
par SimpleNetwork.client.ipv4.mp displayStringTextFormat "\"processed %p pk (%l)\""
par SimpleNetwork.client.ipv4.mp forwardServiceRegistration true
par SimpleNetwork.client.ipv4.mp forwardProtocolRegistration true
par SimpleNetwork.client.ipv4.ip typename "\"inet.networklayer.ipv4.Ipv4\""
par SimpleNetwork.client.ipv4.ip interfaceTableModule "\"SimpleNetwork.client.interfaceTable\""
par SimpleNetwork.client.ipv4.ip routingTableModule "\"SimpleNetwork.client.ipv4.routingTable\""
par SimpleNetwork.client.ipv4.ip arpModule "\"SimpleNetwork.client.ipv4.arp\""
par SimpleNetwork.client.ipv4.ip icmpModule "\"SimpleNetwork.client.ipv4.icmp\""
par SimpleNetwork.client.ipv4.ip crcMode "\"declared\""
attr enum declared,computed
par SimpleNetwork.client.ipv4.ip timeToLive 32
par SimpleNetwork.client.ipv4.ip multicastTimeToLive 32
par SimpleNetwork.client.ipv4.ip fragmentTimeout 60s
attr unit s
par SimpleNetwork.client.ipv4.ip limitedBroadcast false
par SimpleNetwork.client.ipv4.ip directBroadcastInterfaces "\"\""
scalar SimpleNetwork.client.ipv4.ip packetDropAddressResolutionFailed:count 0
attr interpolationmode none
attr recordingmode count
attr source packetDropReasonIsAddressResolutionFailed(packetDropped)
attr title "packet drop: address resolution failed, count"
scalar SimpleNetwork.client.ipv4.ip packetDropAddressResolutionFailed:sum(packetBytes) 0
attr interpolationmode none
attr recordingmode sum(packetBytes)
attr source packetDropReasonIsAddressResolutionFailed(packetDropped)
attr title "packet drop: address resolution failed, sum(packetBytes)"
scalar SimpleNetwork.client.ipv4.ip packetDropHopLimitReached:count 0
attr interpolationmode none
attr recordingmode count
attr source packetDropReasonIsHopLimitReached(packetDropped)
attr title "packet drop: hop limit reached, count"
scalar SimpleNetwork.client.ipv4.ip packetDropHopLimitReached:sum(packetBytes) 0
attr interpolationmode none
attr recordingmode sum(packetBytes)
attr source packetDropReasonIsHopLimitReached(packetDropped)
attr title "packet drop: hop limit reached, sum(packetBytes)"
scalar SimpleNetwork.client.ipv4.ip packetDropForwardingDisabled:count 0
attr interpolationmode none
attr recordingmode count
attr source packetDropReasonIsForwardingDisabled(packetDropped)
attr title "packet drop: forwarding disabled, count"
scalar SimpleNetwork.client.ipv4.ip packetDropForwardingDisabled:sum(packetBytes) 0
attr interpolationmode none
attr recordingmode sum(packetBytes)
attr source packetDropReasonIsForwardingDisabled(packetDropped)
attr title "packet drop: forwarding disabled, sum(packetBytes)"
scalar SimpleNetwork.client.ipv4.ip packetDropNoInterfaceFound:count 0
attr interpolationmode none
attr recordingmode count
attr source packetDropReasonIsNoInterfaceFound(packetDropped)
attr title "packet drop: no interface found, count"
scalar SimpleNetwork.client.ipv4.ip packetDropNoInterfaceFound:sum(packetBytes) 0
attr interpolationmode none
attr recordingmode sum(packetBytes)
attr source packetDropReasonIsNoInterfaceFound(packetDropped)
attr title "packet drop: no interface found, sum(packetBytes)"
scalar SimpleNetwork.client.ipv4.ip packetDropNoRouteFound:count 0
attr interpolationmode none
attr recordingmode count
attr source packetDropReasonIsNoRouteFound(packetDropped)
attr title "packet drop: no route found, count"
scalar SimpleNetwork.client.ipv4.ip packetDropNoRouteFound:sum(packetBytes) 0
attr interpolationmode none
attr recordingmode sum(packetBytes)
attr source packetDropReasonIsNoRouteFound(packetDropped)
attr title "packet drop: no route found, sum(packetBytes)"
scalar SimpleNetwork.client.ipv4.ip packetDropUndefined:count 0
attr interpolationmode none
attr recordingmode count
attr source packetDropReasonIsUndefined(packetDropped)
attr title "packet drop: undefined, count"
scalar SimpleNetwork.client.ipv4.ip packetDropUndefined:sum(packetBytes) 0
attr interpolationmode none
attr recordingmode sum(packetBytes)
attr source packetDropReasonIsUndefined(packetDropped)
attr title "packet drop: undefined, sum(packetBytes)"
par SimpleNetwork.client.ipv4.arp typename "\"inet.networklayer.arp.ipv4.Arp\""
par SimpleNetwork.client.ipv4.arp interfaceTableModule "\"SimpleNetwork.client.interfaceTable\""
par SimpleNetwork.client.ipv4.arp routingTableModule "\"SimpleNetwork.client.ipv4.routingTable\""
par SimpleNetwork.client.ipv4.arp retryTimeout 1s
attr unit s
par SimpleNetwork.client.ipv4.arp retryCount 3
par SimpleNetwork.client.ipv4.arp cacheTimeout 120s
attr unit s
par SimpleNetwork.client.ipv4.arp proxyArpInterfaces "\"\""
scalar SimpleNetwork.client.ipv4.arp arpResolutionFailed:count 0
attr recordingmode count
attr title "ARP failed resolutions, count"
scalar SimpleNetwork.client.ipv4.arp arpResolutionCompleted:count 1
attr recordingmode count
attr title "ARP completed resolutions, count"
scalar SimpleNetwork.client.ipv4.arp arpResolutionInitiated:count 1
attr recordingmode count
attr title "ARP initiated resolutions, count"
scalar SimpleNetwork.client.ipv4.arp arpReplySent:count 0
attr recordingmode count
attr source arpReplySent
attr title "ARP replies sent, count"
scalar SimpleNetwork.client.ipv4.arp arpReplySent:sum(packetBytes) 0
attr recordingmode sum(packetBytes)
attr source arpReplySent
attr title "ARP replies sent, sum(packetBytes)"
scalar SimpleNetwork.client.ipv4.arp arpRequestSent:count 1
attr recordingmode count
attr source arpRequestSent
attr title "ARP request sent, count"
scalar SimpleNetwork.client.ipv4.arp arpRequestSent:sum(packetBytes) 28
attr recordingmode sum(packetBytes)
attr source arpRequestSent
attr title "ARP request sent, sum(packetBytes)"
par SimpleNetwork.client.ipv4.lp typename "\"inet.common.MessageDispatcher\""
par SimpleNetwork.client.ipv4.lp displayStringTextFormat "\"processed %p pk (%l)\""
par SimpleNetwork.client.ipv4.lp forwardServiceRegistration true
par SimpleNetwork.client.ipv4.lp forwardProtocolRegistration true
par SimpleNetwork.client.ipv4 typename "\"inet.networklayer.ipv4.Ipv4NetworkLayer\""
par SimpleNetwork.client.ipv4 forwarding false
par SimpleNetwork.client.ipv4 multicastForwarding false
par SimpleNetwork.client.ipv4 interfaceTableModule "\"SimpleNetwork.client.interfaceTable\""
par SimpleNetwork.client.ipv4 displayStringTextFormat "\"%i\""
par SimpleNetwork.client.nl typename "\"inet.common.MessageDispatcher\""
par SimpleNetwork.client.nl displayStringTextFormat "\"processed %p pk (%l)\""
par SimpleNetwork.client.nl forwardServiceRegistration true
par SimpleNetwork.client.nl forwardProtocolRegistration true
par SimpleNetwork.client.udp typename "\"inet.transportlayer.udp.Udp\""
par SimpleNetwork.client.udp interfaceTableModule "\"SimpleNetwork.client.interfaceTable\""
par SimpleNetwork.client.udp icmpModule "\"^.ipv4.icmp\""
par SimpleNetwork.client.udp icmpv6Module "\"^.ipv6.icmpv6\""
par SimpleNetwork.client.udp crcMode "\"declared\""
attr enum disabled,declared,computed
par SimpleNetwork.client.udp defaultMulticastLoop true
scalar SimpleNetwork.client.udp packetReceived:count 0
attr interpolationmode none
attr recordingmode count
attr source packetReceived
attr title "packets received, count"
scalar SimpleNetwork.client.udp packetReceived:sum(packetBytes) 0
attr interpolationmode none
attr recordingmode sum(packetBytes)
attr source packetReceived
attr title "packets received, sum(packetBytes)"
scalar SimpleNetwork.client.udp packetSent:count 0
attr interpolationmode none
attr recordingmode count
attr source packetSent
attr title "packets sent, count"
scalar SimpleNetwork.client.udp packetSent:sum(packetBytes) 0
attr interpolationmode none
attr recordingmode sum(packetBytes)
attr source packetSent
attr title "packets sent, sum(packetBytes)"
scalar SimpleNetwork.client.udp passedUpPk:count 0
attr interpolationmode none
attr recordingmode count
attr source packetSentToUpper
attr title "packets passed up, count"
scalar SimpleNetwork.client.udp droppedPkWrongPort:count 0
attr interpolationmode none
attr recordingmode count
attr source packetDropReasonIsNoPortFound(packetDropped)
attr title "packets dropped (wrong port), count"
scalar SimpleNetwork.client.udp droppedPkBadChecksum:count 0
attr interpolationmode none
attr recordingmode count
attr source packetDropReasonIsIncorrectlyReceived(packetDropped)
attr title "packets dropped (checksum error), count"
par SimpleNetwork.client.tcp typename "\"inet.transportlayer.tcp.Tcp\""
par SimpleNetwork.client.tcp crcMode "\"declared\""
attr enum declared,computed
par SimpleNetwork.client.tcp advertisedWindow 7504
par SimpleNetwork.client.tcp delayedAcksEnabled false
par SimpleNetwork.client.tcp nagleEnabled true
par SimpleNetwork.client.tcp limitedTransmitEnabled false
par SimpleNetwork.client.tcp increasedIWEnabled false
par SimpleNetwork.client.tcp sackSupport false
par SimpleNetwork.client.tcp windowScalingSupport false
par SimpleNetwork.client.tcp windowScalingFactor -1
par SimpleNetwork.client.tcp timestampSupport false
par SimpleNetwork.client.tcp mss 536
par SimpleNetwork.client.tcp msl 120s
attr unit s
par SimpleNetwork.client.tcp tcpAlgorithmClass "\"TcpReno\""
par SimpleNetwork.client.tcp useDataNotification false
par SimpleNetwork.client.tcp dupthresh 3
par SimpleNetwork.client.tcp initialSsthresh 4294967295
par SimpleNetwork.client.tcp stopOperationExtraTime 0s
attr unit s
par SimpleNetwork.client.tcp stopOperationTimeout 2s
attr unit s
par SimpleNetwork.client.tcp ecnWillingness false
par SimpleNetwork.client.tcp dctcpGamma 0.0625
par SimpleNetwork.client.tn typename "\"inet.common.MessageDispatcher\""
par SimpleNetwork.client.tn displayStringTextFormat "\"processed %p pk (%l)\""
par SimpleNetwork.client.tn forwardServiceRegistration true
par SimpleNetwork.client.tn forwardProtocolRegistration true
par SimpleNetwork.client.app[0] typename "\"inet.applications.tcpapp.TcpSessionApp\""
par SimpleNetwork.client.app[0] localAddress "\"\""
par SimpleNetwork.client.app[0] localPort -1
par SimpleNetwork.client.app[0] active true
par SimpleNetwork.client.app[0] connectAddress "\"server\""
par SimpleNetwork.client.app[0] connectPort 1000
par SimpleNetwork.client.app[0] dataTransferMode "\"bytecount\""
attr enum bytecount,object,bytestream
par SimpleNetwork.client.app[0] tOpen 1s
attr unit s
par SimpleNetwork.client.app[0] tSend 1.1s
attr unit s
par SimpleNetwork.client.app[0] sendBytes 1048576B
attr unit B
par SimpleNetwork.client.app[0] sendScript "\"\""
par SimpleNetwork.client.app[0] tClose 0s
attr unit s
par SimpleNetwork.client.app[0] timeToLive -1
par SimpleNetwork.client.app[0] dscp -1
par SimpleNetwork.client.app[0] tos -1
par SimpleNetwork.client.app[0] stopOperationExtraTime -1s
attr unit s
par SimpleNetwork.client.app[0] stopOperationTimeout 2s
attr unit s
scalar SimpleNetwork.client.app[0] bytesRcvd 2097152
scalar SimpleNetwork.client.app[0] bytesSent 1048576
scalar SimpleNetwork.client.app[0] packetReceived:count 3372
attr interpolationmode none
attr recordingmode count
attr source packetReceived
attr title "packets received, count"
scalar SimpleNetwork.client.app[0] packetReceived:sum(packetBytes) 2097152
attr interpolationmode none
attr recordingmode sum(packetBytes)
attr source packetReceived
attr title "packets received, sum(packetBytes)"
statistic SimpleNetwork.client.app[0] endToEndDelay:histogram
field count 3914
field mean 5.3062828074229
field stddev 1.0513421324875
field min 0.000234011875
field max 5.735991422368
field sum 20768.790908253
field sqrsum 114530.19638128
attr interpolationmode none
attr recordingmode histogram
attr source dataAge(packetReceived)
attr title "end-to-end delay"
attr unit s
bin	-inf	0
bin	0	28
bin	0.1	0
bin	0.2	0
bin	0.3	0
bin	0.4	0
bin	0.5	0
bin	0.6	0
bin	0.7	0
bin	0.8	0
bin	0.9	0
bin	1	0
bin	1.1	0
bin	1.2	0
bin	1.3	0
bin	1.4	0
bin	1.5	134
bin	1.6	0
bin	1.7	0
bin	1.8	0
bin	1.9	0
bin	2	0
bin	2.1	0
bin	2.2	0
bin	2.3	0
bin	2.4	0
bin	2.5	118
bin	2.6	0
bin	2.7	0
bin	2.8	0
bin	2.9	0
bin	3	0
bin	3.1	0
bin	3.2	0
bin	3.3	0
bin	3.4	0
bin	3.5	94
bin	3.6	0
bin	3.7	0
bin	3.8	0
bin	3.9	0
bin	4	0
bin	4.1	0
bin	4.2	0
bin	4.3	0
bin	4.4	0
bin	4.5	69
bin	4.6	0
bin	4.7	0
bin	4.8	0
bin	4.9	0
bin	5	0
bin	5.1	0
bin	5.2	0
bin	5.3	0
bin	5.4	0
bin	5.5	722
bin	5.6	2021
bin	5.7	728
bin	5.8	0
bin	5.9	0
bin	6	0
bin	6.1	0
bin	6.2	0
bin	6.3	0
bin	6.4	0
bin	6.5	0
bin	6.6	0
bin	6.7	0
bin	6.8	0
bin	6.9	0
bin	7	0
statistic SimpleNetwork.client.app[0] endToEndDelay:weightedHistogram
field count 3914
field mean 5.3061287218447
field stddev 1.0514991419348
field min 0.000234011875
field max 5.735991422368
field weights 16777216
field weightedSum 89022067.690193
field sqrSumWeights 71933001728
field weightedSqrSum 490907546.07178
attr interpolationmode none
attr recordingmode weightedHistogram
attr source dataAge(packetReceived)
attr title "end-to-end delay, weightedHistogram"
attr unit s
bin	-inf	0
bin	0	120064
bin	0.1	0
bin	0.2	0
bin	0.3	0
bin	0.4	0
bin	0.5	0
bin	0.6	0
bin	0.7	0
bin	0.8	0
bin	0.9	0
bin	1	0
bin	1.1	0
bin	1.2	0
bin	1.3	0
bin	1.4	0
bin	1.5	574592
bin	1.6	0
bin	1.7	0
bin	1.8	0
bin	1.9	0
bin	2	0
bin	2.1	0
bin	2.2	0
bin	2.3	0
bin	2.4	0
bin	2.5	505984
bin	2.6	0
bin	2.7	0
bin	2.8	0
bin	2.9	0
bin	3	0
bin	3.1	0
bin	3.2	0
bin	3.3	0
bin	3.4	0
bin	3.5	403072
bin	3.6	0
bin	3.7	0
bin	3.8	0
bin	3.9	0
bin	4	0
bin	4.1	0
bin	4.2	0
bin	4.3	0
bin	4.4	0
bin	4.5	295872
bin	4.6	0
bin	4.7	0
bin	4.8	0
bin	4.9	0
bin	5	0
bin	5.1	0
bin	5.2	0
bin	5.3	0
bin	5.4	0
bin	5.5	3095936
bin	5.6	8666048
bin	5.7	3115648
bin	5.8	0
bin	5.9	0
bin	6	0
bin	6.1	0
bin	6.2	0
bin	6.3	0
bin	6.4	0
bin	6.5	0
bin	6.6	0
bin	6.7	0
bin	6.8	0
bin	6.9	0
bin	7	0
scalar SimpleNetwork.client.app[0] packetSent:count 1
attr interpolationmode none
attr recordingmode count
attr source packetSent
attr title "packets sent, count"
scalar SimpleNetwork.client.app[0] packetSent:sum(packetBytes) 1048576
attr interpolationmode none
attr recordingmode sum(packetBytes)
attr source packetSent
attr title "packets sent, sum(packetBytes)"
par SimpleNetwork.client.at typename "\"inet.common.MessageDispatcher\""
par SimpleNetwork.client.at displayStringTextFormat "\"processed %p pk (%l)\""
par SimpleNetwork.client.at forwardServiceRegistration true
par SimpleNetwork.client.at forwardProtocolRegistration true
par SimpleNetwork.client typename "\"inet.node.inet.StandardHost\""
par SimpleNetwork.client hasStatus false
par SimpleNetwork.client osgModel "\"\""
par SimpleNetwork.client osgModelColor "\"\""
par SimpleNetwork.client canvasImage "\"\""
par SimpleNetwork.client canvasImageColor "\"\""
par SimpleNetwork.client recordPcap false
par SimpleNetwork.client numPcapRecorders 0
par SimpleNetwork.client numLoInterfaces 1
par SimpleNetwork.client numWlanInterfaces 0
par SimpleNetwork.client numEthInterfaces 0
par SimpleNetwork.client numPppInterfaces 0
par SimpleNetwork.client numTunInterfaces 0
par SimpleNetwork.client numVirtInterfaces 0
par SimpleNetwork.client fcsMode "\"declared\""
attr enum declared,computed
par SimpleNetwork.client hasIpv4 true
par SimpleNetwork.client hasIpv6 false
par SimpleNetwork.client hasGn false
par SimpleNetwork.client forwarding false
par SimpleNetwork.client multicastForwarding false
par SimpleNetwork.client hasUdp true
par SimpleNetwork.client hasTcp true
par SimpleNetwork.client hasSctp false
par SimpleNetwork.client numApps 1
par SimpleNetwork.host1.ethg$i[0].channel typename "\"ned.IdealChannel\""
par SimpleNetwork.host1.eth[0].phys$o.channel typename "\"ned.IdealChannel\""
par SimpleNetwork.host1.interfaceTable typename "\"inet.networklayer.common.InterfaceTable\""
par SimpleNetwork.host1.interfaceTable displayAddresses false
par SimpleNetwork.host1.cb typename "\"inet.common.MessageDispatcher\""
par SimpleNetwork.host1.cb displayStringTextFormat "\"processed %p pk (%l)\""
par SimpleNetwork.host1.cb forwardServiceRegistration true
par SimpleNetwork.host1.cb forwardProtocolRegistration true
par SimpleNetwork.host1.bl typename "\"inet.common.MessageDispatcher\""
par SimpleNetwork.host1.bl displayStringTextFormat "\"processed %p pk (%l)\""
par SimpleNetwork.host1.bl forwardServiceRegistration true
par SimpleNetwork.host1.bl forwardProtocolRegistration true
par SimpleNetwork.host1.ethernet typename "\"inet.linklayer.ethernet.basic.EthernetEncapsulation\""
par SimpleNetwork.host1.ethernet registerProtocol true
par SimpleNetwork.host1.ethernet interfaceTableModule "\"SimpleNetwork.host1.interfaceTable\""
par SimpleNetwork.host1.ethernet fcsMode "\"declared\""
attr enum declared,computed
par SimpleNetwork.host1.ethernet stopOperationExtraTime -1s
attr unit s
par SimpleNetwork.host1.ethernet stopOperationTimeout 2s
attr unit s
scalar SimpleNetwork.host1.ethernet pauseSent:count 0
attr recordingmode count
attr title "pause sent, count"
scalar SimpleNetwork.host1.ethernet pauseSent:sum 0
attr recordingmode sum
attr title "pause sent, sum"
scalar SimpleNetwork.host1.ethernet decapPk:count 1
attr interpolationmode none
attr recordingmode count
attr source decapPk
attr title "packets decapsulated, count"
scalar SimpleNetwork.host1.ethernet decapPk:sum(packetBytes) 46
attr interpolationmode none
attr recordingmode sum(packetBytes)
attr source decapPk
attr title "packets decapsulated, sum(packetBytes)"
scalar SimpleNetwork.host1.ethernet encapPk:count 0
attr interpolationmode none
attr recordingmode count
attr source encapPk
attr title "packets encapsulated, count"
scalar SimpleNetwork.host1.ethernet encapPk:sum(packetBytes) 0
attr interpolationmode none
attr recordingmode sum(packetBytes)
attr source encapPk
attr title "packets encapsulated, sum(packetBytes)"
par SimpleNetwork.host1.li typename "\"inet.common.MessageDispatcher\""
par SimpleNetwork.host1.li displayStringTextFormat "\"processed %p pk (%l)\""
par SimpleNetwork.host1.li forwardServiceRegistration true
par SimpleNetwork.host1.li forwardProtocolRegistration true
par SimpleNetwork.host1.lo[0].upperLayerIn.channel typename "\"ned.IdealChannel\""
par SimpleNetwork.host1.lo[0].lo.upperLayerOut.channel typename "\"ned.IdealChannel\""
par SimpleNetwork.host1.lo[0].lo typename "\"inet.linklayer.loopback.Loopback\""
par SimpleNetwork.host1.lo[0].lo interfaceTableModule "\"SimpleNetwork.host1.interfaceTable\""
par SimpleNetwork.host1.lo[0].lo mtu 4470B
attr unit B
scalar SimpleNetwork.host1.lo[0].lo rcvdPkFromHl:count 0
attr interpolationmode none
attr recordingmode count
attr source packetReceivedFromUpper
attr title "packets received from higher layer, count"
scalar SimpleNetwork.host1.lo[0].lo rcvdPkFromHl:sum(packetBytes) 0
attr interpolationmode none
attr recordingmode sum(packetBytes)
attr source packetReceivedFromUpper
attr title "packets received from higher layer, sum(packetBytes)"
scalar SimpleNetwork.host1.lo[0].lo passedUpPk:count 0
attr interpolationmode none
attr recordingmode count
attr source packetSentToUpper
attr title "packets passed to higher layer, count"
scalar SimpleNetwork.host1.lo[0].lo passedUpPk:sum(packetBytes) 0
attr interpolationmode none
attr recordingmode sum(packetBytes)
attr source packetSentToUpper
attr title "packets passed to higher layer, sum(packetBytes)"
par SimpleNetwork.host1.lo[0] typename "\"inet.linklayer.loopback.LoopbackInterface\""
par SimpleNetwork.host1.lo[0] displayStringTextFormat "\"%a (%i)\\n%m\""
par SimpleNetwork.host1.lo[0] recordPcap false
par SimpleNetwork.host1.lo[0] numPcapRecorders 0
par SimpleNetwork.host1.lo[0] interfaceTableModule "\"SimpleNetwork.host1.interfaceTable\""
scalar SimpleNetwork.host1.lo[0] packetDropInterfaceDown:count 0
attr interpolationmode none
attr recordingmode count
attr source packetDropReasonIsInterfaceDown(packetDropped)
attr title "packet drops: interface down, count"
scalar SimpleNetwork.host1.lo[0] packetDropInterfaceDown:sum(packetBytes) 0
attr interpolationmode none
attr recordingmode sum(packetBytes)
attr source packetDropReasonIsInterfaceDown(packetDropped)
attr title "packet drops: interface down, sum(packetBytes)"
scalar SimpleNetwork.host1.lo[0] packetDropNoCarrier:count 0
attr interpolationmode none
attr recordingmode count
attr source packetDropReasonIsNoCarrier(packetDropped)
attr title "packet drops: no carrier, count"
scalar SimpleNetwork.host1.lo[0] packetDropNoCarrier:sum(packetBytes) 0
attr interpolationmode none
attr recordingmode sum(packetBytes)
attr source packetDropReasonIsNoCarrier(packetDropped)
attr title "packet drops: no carrier, sum(packetBytes)"
par SimpleNetwork.host1.eth[0].mac.phys$o.channel typename "\"ned.IdealChannel\""
par SimpleNetwork.host1.eth[0].phys$i.channel typename "\"ned.IdealChannel\""
par SimpleNetwork.host1.eth[0].upperLayerIn.channel typename "\"ned.IdealChannel\""
par SimpleNetwork.host1.eth[0].mac.upperLayerOut.channel typename "\"ned.IdealChannel\""
par SimpleNetwork.host1.eth[0].queue.classifier typename "\"inet.linklayer.ethernet.common.EthernetFrameClassifier\""
par SimpleNetwork.host1.eth[0].queue.classifier displayStringTextFormat "\"classified %p pk (%l)\""
par SimpleNetwork.host1.eth[0].queue.classifier reverseOrder false
scalar SimpleNetwork.host1.eth[0].queue.classifier packets:count 0
attr recordingmode count
attr source packetPushed
attr title "packets, count"
attr unit pk
scalar SimpleNetwork.host1.eth[0].queue.classifier packetLengths:sum 0
attr interpolationmode none
attr recordingmode sum
attr source packetLength(packetPushed)
attr title "packet lengths, sum"
attr unit b
statistic SimpleNetwork.host1.eth[0].queue.classifier packetLengths:histogram
field count 0
field mean -nan
field stddev -nan
field min -nan
field max -nan
field sum 0
field sqrsum 0
attr interpolationmode none
attr recordingmode histogram
attr source packetLength(packetPushed)
attr title "packet lengths"
attr unit b
bin	-inf	0
bin	0	0
bin	1	0
par SimpleNetwork.host1.eth[0].queue.pauseQueue typename "\"inet.queueing.queue.DropTailQueue\""
par SimpleNetwork.host1.eth[0].queue.pauseQueue displayStringTextFormat "\"contains %p pk (%l) pushed %u\\npulled %o removed %r dropped %d\""
par SimpleNetwork.host1.eth[0].queue.pauseQueue packetCapacity 100
par SimpleNetwork.host1.eth[0].queue.pauseQueue dataCapacity -1b
attr unit b
par SimpleNetwork.host1.eth[0].queue.pauseQueue dropperClass "\"inet::queueing::PacketAtCollectionEndDropper\""
par SimpleNetwork.host1.eth[0].queue.pauseQueue comparatorClass "\"\""
par SimpleNetwork.host1.eth[0].queue.pauseQueue bufferModule "\"\""
scalar SimpleNetwork.host1.eth[0].queue.pauseQueue queueLength:last nan
attr autoWarmupFilter false
attr interpolationmode sample-hold
attr recordingmode last
attr source "warmup(atomic(constant0(packetPushEnded) + count(packetPushStarted) - count(packetPulled) - count(packetRemoved) - count(packetDropped)))"
attr title "queue length, last"
attr unit pk
scalar SimpleNetwork.host1.eth[0].queue.pauseQueue queueLength:max -nan
attr autoWarmupFilter false
attr interpolationmode sample-hold
attr recordingmode max
attr source "warmup(atomic(constant0(packetPushEnded) + count(packetPushStarted) - count(packetPulled) - count(packetRemoved) - count(packetDropped)))"
attr title "queue length, max"
attr unit pk
scalar SimpleNetwork.host1.eth[0].queue.pauseQueue queueLength:timeavg -nan
attr autoWarmupFilter false
attr interpolationmode sample-hold
attr recordingmode timeavg
attr source "warmup(atomic(constant0(packetPushEnded) + count(packetPushStarted) - count(packetPulled) - count(packetRemoved) - count(packetDropped)))"
attr title "queue length, timeavg"
attr unit pk
scalar SimpleNetwork.host1.eth[0].queue.pauseQueue queueBitLength:last nan
attr autoWarmupFilter false
attr interpolationmode sample-hold
attr recordingmode last
attr source "warmup(atomic(constant0(packetPushEnded) + sum(packetLength(packetPushStarted)) - sum(packetLength(packetPulled)) - sum(packetLength(packetRemoved)) - sum(packetLength(packetDropped))))"
attr title "queue bit length, last"
attr unit b
scalar SimpleNetwork.host1.eth[0].queue.pauseQueue queueBitLength:max -nan
attr autoWarmupFilter false
attr interpolationmode sample-hold
attr recordingmode max
attr source "warmup(atomic(constant0(packetPushEnded) + sum(packetLength(packetPushStarted)) - sum(packetLength(packetPulled)) - sum(packetLength(packetRemoved)) - sum(packetLength(packetDropped))))"
attr title "queue bit length, max"
attr unit b
scalar SimpleNetwork.host1.eth[0].queue.pauseQueue queueBitLength:timeavg -nan
attr autoWarmupFilter false
attr interpolationmode sample-hold
attr recordingmode timeavg
attr source "warmup(atomic(constant0(packetPushEnded) + sum(packetLength(packetPushStarted)) - sum(packetLength(packetPulled)) - sum(packetLength(packetRemoved)) - sum(packetLength(packetDropped))))"
attr title "queue bit length, timeavg"
attr unit b
statistic SimpleNetwork.host1.eth[0].queue.pauseQueue queueingTime:histogram
field count 0
field mean -nan
field stddev -nan
field min -nan
field max -nan
field sum 0
field sqrsum 0
attr interpolationmode none
attr recordingmode histogram
attr source queueingTime(packetPulled)
attr title "queueing times"
attr unit s
bin	-inf	0
bin	0	0
bin	1	0
scalar SimpleNetwork.host1.eth[0].queue.pauseQueue outgoingPackets:count 0
attr recordingmode count
attr source packetPulled
attr title "outgoing packets, count"
attr unit pk
scalar SimpleNetwork.host1.eth[0].queue.pauseQueue outgoingPacketLengths:sum 0
attr interpolationmode none
attr recordingmode sum
attr source packetLength(packetPulled)
attr title "outgoing packet lengths, sum"
attr unit b
statistic SimpleNetwork.host1.eth[0].queue.pauseQueue outgoingPacketLengths:histogram
field count 0
field mean -nan
field stddev -nan
field min -nan
field max -nan
field sum 0
field sqrsum 0
attr interpolationmode none
attr recordingmode histogram
attr source packetLength(packetPulled)
attr title "outgoing packet lengths"
attr unit b
bin	-inf	0
bin	0	0
bin	1	0
statistic SimpleNetwork.host1.eth[0].queue.pauseQueue flowQueueingTime:histogram
field count 0
field mean -nan
field stddev -nan
field min -nan
field max -nan
field sum 0
field sqrsum 0
attr interpolationmode none
attr recordingmode histogram
attr source queueingTime(demuxFlow(packetPulled))
attr title "flow queueing times"
attr unit s
bin	-inf	0
bin	0	0
bin	1	0
scalar SimpleNetwork.host1.eth[0].queue.pauseQueue incomingPackets:count 0
attr recordingmode count
attr source packetPushStarted
attr title "incoming packets, count"
attr unit pk
scalar SimpleNetwork.host1.eth[0].queue.pauseQueue incomingPacketLengths:sum 0
attr interpolationmode none
attr recordingmode sum
attr source packetLength(packetPushStarted)
attr title "incoming packet lengths, sum"
attr unit b
statistic SimpleNetwork.host1.eth[0].queue.pauseQueue incomingPacketLengths:histogram
field count 0
field mean -nan
field stddev -nan
field min -nan
field max -nan
field sum 0
field sqrsum 0
attr interpolationmode none
attr recordingmode histogram
attr source packetLength(packetPushStarted)
attr title "incoming packet lengths"
attr unit b
bin	-inf	0
bin	0	0
bin	1	0
scalar SimpleNetwork.host1.eth[0].queue.pauseQueue droppedPacketsQueueOverflow:count 0
attr interpolationmode none
attr recordingmode count
attr source packetDropReasonIsQueueOverflow(packetDropped)
attr title "dropped packets: queue overflow, count"
attr unit pk
scalar SimpleNetwork.host1.eth[0].queue.pauseQueue droppedPacketLengthsQueueOverflow:sum 0
attr interpolationmode none
attr recordingmode sum
attr source packetLength(packetDropReasonIsQueueOverflow(packetDropped))
attr title "dropped packet lengths: queue overflow, sum"
attr unit b
par SimpleNetwork.host1.eth[0].queue.dataQueue typename "\"inet.queueing.queue.DropTailQueue\""
par SimpleNetwork.host1.eth[0].queue.dataQueue displayStringTextFormat "\"contains %p pk (%l) pushed %u\\npulled %o removed %r dropped %d\""
par SimpleNetwork.host1.eth[0].queue.dataQueue packetCapacity 10
par SimpleNetwork.host1.eth[0].queue.dataQueue dataCapacity -1b
attr unit b
par SimpleNetwork.host1.eth[0].queue.dataQueue dropperClass "\"inet::queueing::PacketAtCollectionEndDropper\""
par SimpleNetwork.host1.eth[0].queue.dataQueue comparatorClass "\"\""
par SimpleNetwork.host1.eth[0].queue.dataQueue bufferModule "\"\""
scalar SimpleNetwork.host1.eth[0].queue.dataQueue queueLength:last nan
attr autoWarmupFilter false
attr interpolationmode sample-hold
attr recordingmode last
attr source "warmup(atomic(constant0(packetPushEnded) + count(packetPushStarted) - count(packetPulled) - count(packetRemoved) - count(packetDropped)))"
attr title "queue length, last"
attr unit pk
scalar SimpleNetwork.host1.eth[0].queue.dataQueue queueLength:max -nan
attr autoWarmupFilter false
attr interpolationmode sample-hold
attr recordingmode max
attr source "warmup(atomic(constant0(packetPushEnded) + count(packetPushStarted) - count(packetPulled) - count(packetRemoved) - count(packetDropped)))"
attr title "queue length, max"
attr unit pk
scalar SimpleNetwork.host1.eth[0].queue.dataQueue queueLength:timeavg -nan
attr autoWarmupFilter false
attr interpolationmode sample-hold
attr recordingmode timeavg
attr source "warmup(atomic(constant0(packetPushEnded) + count(packetPushStarted) - count(packetPulled) - count(packetRemoved) - count(packetDropped)))"
attr title "queue length, timeavg"
attr unit pk
scalar SimpleNetwork.host1.eth[0].queue.dataQueue queueBitLength:last nan
attr autoWarmupFilter false
attr interpolationmode sample-hold
attr recordingmode last
attr source "warmup(atomic(constant0(packetPushEnded) + sum(packetLength(packetPushStarted)) - sum(packetLength(packetPulled)) - sum(packetLength(packetRemoved)) - sum(packetLength(packetDropped))))"
attr title "queue bit length, last"
attr unit b
scalar SimpleNetwork.host1.eth[0].queue.dataQueue queueBitLength:max -nan
attr autoWarmupFilter false
attr interpolationmode sample-hold
attr recordingmode max
attr source "warmup(atomic(constant0(packetPushEnded) + sum(packetLength(packetPushStarted)) - sum(packetLength(packetPulled)) - sum(packetLength(packetRemoved)) - sum(packetLength(packetDropped))))"
attr title "queue bit length, max"
attr unit b
scalar SimpleNetwork.host1.eth[0].queue.dataQueue queueBitLength:timeavg -nan
attr autoWarmupFilter false
attr interpolationmode sample-hold
attr recordingmode timeavg
attr source "warmup(atomic(constant0(packetPushEnded) + sum(packetLength(packetPushStarted)) - sum(packetLength(packetPulled)) - sum(packetLength(packetRemoved)) - sum(packetLength(packetDropped))))"
attr title "queue bit length, timeavg"
attr unit b
statistic SimpleNetwork.host1.eth[0].queue.dataQueue queueingTime:histogram
field count 0
field mean -nan
field stddev -nan
field min -nan
field max -nan
field sum 0
field sqrsum 0
attr interpolationmode none
attr recordingmode histogram
attr source queueingTime(packetPulled)
attr title "queueing times"
attr unit s
bin	-inf	0
bin	0	0
bin	1	0
scalar SimpleNetwork.host1.eth[0].queue.dataQueue outgoingPackets:count 0
attr recordingmode count
attr source packetPulled
attr title "outgoing packets, count"
attr unit pk
scalar SimpleNetwork.host1.eth[0].queue.dataQueue outgoingPacketLengths:sum 0
attr interpolationmode none
attr recordingmode sum
attr source packetLength(packetPulled)
attr title "outgoing packet lengths, sum"
attr unit b
statistic SimpleNetwork.host1.eth[0].queue.dataQueue outgoingPacketLengths:histogram
field count 0
field mean -nan
field stddev -nan
field min -nan
field max -nan
field sum 0
field sqrsum 0
attr interpolationmode none
attr recordingmode histogram
attr source packetLength(packetPulled)
attr title "outgoing packet lengths"
attr unit b
bin	-inf	0
bin	0	0
bin	1	0
statistic SimpleNetwork.host1.eth[0].queue.dataQueue flowQueueingTime:histogram
field count 0
field mean -nan
field stddev -nan
field min -nan
field max -nan
field sum 0
field sqrsum 0
attr interpolationmode none
attr recordingmode histogram
attr source queueingTime(demuxFlow(packetPulled))
attr title "flow queueing times"
attr unit s
bin	-inf	0
bin	0	0
bin	1	0
scalar SimpleNetwork.host1.eth[0].queue.dataQueue incomingPackets:count 0
attr recordingmode count
attr source packetPushStarted
attr title "incoming packets, count"
attr unit pk
scalar SimpleNetwork.host1.eth[0].queue.dataQueue incomingPacketLengths:sum 0
attr interpolationmode none
attr recordingmode sum
attr source packetLength(packetPushStarted)
attr title "incoming packet lengths, sum"
attr unit b
statistic SimpleNetwork.host1.eth[0].queue.dataQueue incomingPacketLengths:histogram
field count 0
field mean -nan
field stddev -nan
field min -nan
field max -nan
field sum 0
field sqrsum 0
attr interpolationmode none
attr recordingmode histogram
attr source packetLength(packetPushStarted)
attr title "incoming packet lengths"
attr unit b
bin	-inf	0
bin	0	0
bin	1	0
[...]
scalar SimpleNetwork.server.ppp[0] packetDropInterfaceDown:sum(packetBytes) 0
attr interpolationmode none
attr recordingmode sum(packetBytes)
attr source packetDropReasonIsInterfaceDown(packetDropped)
attr title "packet drops: interface down, sum(packetBytes)"
scalar SimpleNetwork.server.ppp[0] packetDropNoCarrier:count 0
attr interpolationmode none
attr recordingmode count
attr source packetDropReasonIsNoCarrier(packetDropped)
attr title "packet drops: no carrier, count"
scalar SimpleNetwork.server.ppp[0] packetDropNoCarrier:sum(packetBytes) 0
attr interpolationmode none
attr recordingmode sum(packetBytes)
attr source packetDropReasonIsNoCarrier(packetDropped)
attr title "packet drops: no carrier, sum(packetBytes)"
par SimpleNetwork.server.ipv4.transportIn.channel typename "\"ned.IdealChannel\""
par SimpleNetwork.server.ipv4.up.out[0].channel typename "\"ned.IdealChannel\""
par SimpleNetwork.server.ipv4.lp.out[2].channel typename "\"ned.IdealChannel\""
par SimpleNetwork.server.ipv4.ifIn.channel typename "\"ned.IdealChannel\""
par SimpleNetwork.server.ipv4.configurator typename "\"inet.networklayer.configurator.ipv4.Ipv4NodeConfigurator\""
par SimpleNetwork.server.ipv4.configurator interfaceTableModule "\"SimpleNetwork.server.interfaceTable\""
par SimpleNetwork.server.ipv4.configurator routingTableModule "\"SimpleNetwork.server.ipv4.routingTable\""
par SimpleNetwork.server.ipv4.configurator networkConfiguratorModule "\"configurator\""
par SimpleNetwork.server.ipv4.configurator configureRoutingTable true
par SimpleNetwork.server.ipv4.routingTable typename "\"inet.networklayer.ipv4.Ipv4RoutingTable\""
par SimpleNetwork.server.ipv4.routingTable interfaceTableModule "\"SimpleNetwork.server.interfaceTable\""
par SimpleNetwork.server.ipv4.routingTable routerId "\"auto\""
par SimpleNetwork.server.ipv4.routingTable netmaskRoutes "\"*\""
par SimpleNetwork.server.ipv4.routingTable forwarding false
par SimpleNetwork.server.ipv4.routingTable multicastForwarding false
par SimpleNetwork.server.ipv4.routingTable useAdminDist false
par SimpleNetwork.server.ipv4.routingTable routingFile "\"\""
par SimpleNetwork.server.ipv4.natTable typename "\"inet.networklayer.ipv4.Ipv4NatTable\""
par SimpleNetwork.server.ipv4.natTable networkProtocolModule "\"^.ip\""
par SimpleNetwork.server.ipv4.natTable config "<config/> at content:1"
par SimpleNetwork.server.ipv4.up typename "\"inet.common.MessageDispatcher\""
par SimpleNetwork.server.ipv4.up displayStringTextFormat "\"processed %p pk (%l)\""
par SimpleNetwork.server.ipv4.up forwardServiceRegistration true
par SimpleNetwork.server.ipv4.up forwardProtocolRegistration true
par SimpleNetwork.server.ipv4.igmp typename "\"inet.networklayer.ipv4.Igmpv2\""
par SimpleNetwork.server.ipv4.igmp interfaceTableModule "\"SimpleNetwork.server.interfaceTable\""
par SimpleNetwork.server.ipv4.igmp routingTableModule "\"SimpleNetwork.server.ipv4.routingTable\""
par SimpleNetwork.server.ipv4.igmp crcMode "\"declared\""
attr enum declared,computed
par SimpleNetwork.server.ipv4.igmp enabled true
par SimpleNetwork.server.ipv4.igmp robustnessVariable 2
par SimpleNetwork.server.ipv4.igmp queryInterval 125s
attr unit s
par SimpleNetwork.server.ipv4.igmp queryResponseInterval 10s
attr unit s
par SimpleNetwork.server.ipv4.igmp groupMembershipInterval 260s
attr unit s
par SimpleNetwork.server.ipv4.igmp otherQuerierPresentInterval 255s
attr unit s
par SimpleNetwork.server.ipv4.igmp startupQueryInterval 31.25s
attr unit s
par SimpleNetwork.server.ipv4.igmp startupQueryCount 2
par SimpleNetwork.server.ipv4.igmp lastMemberQueryInterval 1s
attr unit s
par SimpleNetwork.server.ipv4.igmp lastMemberQueryCount 2
par SimpleNetwork.server.ipv4.igmp unsolicitedReportInterval 10s
attr unit s
par SimpleNetwork.server.ipv4.icmp typename "\"inet.networklayer.ipv4.Icmp\""
par SimpleNetwork.server.ipv4.icmp interfaceTableModule "\"SimpleNetwork.server.interfaceTable\""
par SimpleNetwork.server.ipv4.icmp routingTableModule "\"SimpleNetwork.server.ipv4.routingTable\""
par SimpleNetwork.server.ipv4.icmp crcMode "\"declared\""
attr enum declared,computed
attr mutable ""
par SimpleNetwork.server.ipv4.icmp quoteLength 8B
attr mutable ""
attr unit B
par SimpleNetwork.server.ipv4.mp typename "\"inet.common.MessageDispatcher\""
par SimpleNetwork.server.ipv4.mp displayStringTextFormat "\"processed %p pk (%l)\""
par SimpleNetwork.server.ipv4.mp forwardServiceRegistration true
par SimpleNetwork.server.ipv4.mp forwardProtocolRegistration true
par SimpleNetwork.server.ipv4.ip typename "\"inet.networklayer.ipv4.Ipv4\""
par SimpleNetwork.server.ipv4.ip interfaceTableModule "\"SimpleNetwork.server.interfaceTable\""
par SimpleNetwork.server.ipv4.ip routingTableModule "\"SimpleNetwork.server.ipv4.routingTable\""
par SimpleNetwork.server.ipv4.ip arpModule "\"SimpleNetwork.server.ipv4.arp\""
par SimpleNetwork.server.ipv4.ip icmpModule "\"SimpleNetwork.server.ipv4.icmp\""
par SimpleNetwork.server.ipv4.ip crcMode "\"declared\""
attr enum declared,computed
par SimpleNetwork.server.ipv4.ip timeToLive 32
par SimpleNetwork.server.ipv4.ip multicastTimeToLive 32
par SimpleNetwork.server.ipv4.ip fragmentTimeout 60s
attr unit s
par SimpleNetwork.server.ipv4.ip limitedBroadcast false
par SimpleNetwork.server.ipv4.ip directBroadcastInterfaces "\"\""
scalar SimpleNetwork.server.ipv4.ip packetDropAddressResolutionFailed:count 0
attr interpolationmode none
attr recordingmode count
attr source packetDropReasonIsAddressResolutionFailed(packetDropped)
attr title "packet drop: address resolution failed, count"
scalar SimpleNetwork.server.ipv4.ip packetDropAddressResolutionFailed:sum(packetBytes) 0
attr interpolationmode none
attr recordingmode sum(packetBytes)
attr source packetDropReasonIsAddressResolutionFailed(packetDropped)
attr title "packet drop: address resolution failed, sum(packetBytes)"
scalar SimpleNetwork.server.ipv4.ip packetDropHopLimitReached:count 0
attr interpolationmode none
attr recordingmode count
attr source packetDropReasonIsHopLimitReached(packetDropped)
attr title "packet drop: hop limit reached, count"
scalar SimpleNetwork.server.ipv4.ip packetDropHopLimitReached:sum(packetBytes) 0
attr interpolationmode none
attr recordingmode sum(packetBytes)
attr source packetDropReasonIsHopLimitReached(packetDropped)
attr title "packet drop: hop limit reached, sum(packetBytes)"
scalar SimpleNetwork.server.ipv4.ip packetDropForwardingDisabled:count 0
attr interpolationmode none
attr recordingmode count
attr source packetDropReasonIsForwardingDisabled(packetDropped)
attr title "packet drop: forwarding disabled, count"
scalar SimpleNetwork.server.ipv4.ip packetDropForwardingDisabled:sum(packetBytes) 0
attr interpolationmode none
attr recordingmode sum(packetBytes)
attr source packetDropReasonIsForwardingDisabled(packetDropped)
attr title "packet drop: forwarding disabled, sum(packetBytes)"
scalar SimpleNetwork.server.ipv4.ip packetDropNoInterfaceFound:count 0
attr interpolationmode none
attr recordingmode count
attr source packetDropReasonIsNoInterfaceFound(packetDropped)
attr title "packet drop: no interface found, count"
scalar SimpleNetwork.server.ipv4.ip packetDropNoInterfaceFound:sum(packetBytes) 0
attr interpolationmode none
attr recordingmode sum(packetBytes)
attr source packetDropReasonIsNoInterfaceFound(packetDropped)
attr title "packet drop: no interface found, sum(packetBytes)"
scalar SimpleNetwork.server.ipv4.ip packetDropNoRouteFound:count 0
attr interpolationmode none
attr recordingmode count
attr source packetDropReasonIsNoRouteFound(packetDropped)
attr title "packet drop: no route found, count"
scalar SimpleNetwork.server.ipv4.ip packetDropNoRouteFound:sum(packetBytes) 0
attr interpolationmode none
attr recordingmode sum(packetBytes)
attr source packetDropReasonIsNoRouteFound(packetDropped)
attr title "packet drop: no route found, sum(packetBytes)"
scalar SimpleNetwork.server.ipv4.ip packetDropUndefined:count 0
attr interpolationmode none
attr recordingmode count
attr source packetDropReasonIsUndefined(packetDropped)
attr title "packet drop: undefined, count"
scalar SimpleNetwork.server.ipv4.ip packetDropUndefined:sum(packetBytes) 0
attr interpolationmode none
attr recordingmode sum(packetBytes)
attr source packetDropReasonIsUndefined(packetDropped)
attr title "packet drop: undefined, sum(packetBytes)"
par SimpleNetwork.server.ipv4.arp typename "\"inet.networklayer.arp.ipv4.Arp\""
par SimpleNetwork.server.ipv4.arp interfaceTableModule "\"SimpleNetwork.server.interfaceTable\""
par SimpleNetwork.server.ipv4.arp routingTableModule "\"SimpleNetwork.server.ipv4.routingTable\""
par SimpleNetwork.server.ipv4.arp retryTimeout 1s
attr unit s
par SimpleNetwork.server.ipv4.arp retryCount 3
par SimpleNetwork.server.ipv4.arp cacheTimeout 120s
attr unit s
par SimpleNetwork.server.ipv4.arp proxyArpInterfaces "\"\""
scalar SimpleNetwork.server.ipv4.arp arpResolutionFailed:count 0
attr recordingmode count
attr title "ARP failed resolutions, count"
scalar SimpleNetwork.server.ipv4.arp arpResolutionCompleted:count 0
attr recordingmode count
attr title "ARP completed resolutions, count"
scalar SimpleNetwork.server.ipv4.arp arpResolutionInitiated:count 0
attr recordingmode count
attr title "ARP initiated resolutions, count"
scalar SimpleNetwork.server.ipv4.arp arpReplySent:count 0
attr recordingmode count
attr source arpReplySent
attr title "ARP replies sent, count"
scalar SimpleNetwork.server.ipv4.arp arpReplySent:sum(packetBytes) 0
attr recordingmode sum(packetBytes)
attr source arpReplySent
attr title "ARP replies sent, sum(packetBytes)"
scalar SimpleNetwork.server.ipv4.arp arpRequestSent:count 0
attr recordingmode count
attr source arpRequestSent
attr title "ARP request sent, count"
scalar SimpleNetwork.server.ipv4.arp arpRequestSent:sum(packetBytes) 0
attr recordingmode sum(packetBytes)
attr source arpRequestSent
attr title "ARP request sent, sum(packetBytes)"
par SimpleNetwork.server.ipv4.lp typename "\"inet.common.MessageDispatcher\""
par SimpleNetwork.server.ipv4.lp displayStringTextFormat "\"processed %p pk (%l)\""
par SimpleNetwork.server.ipv4.lp forwardServiceRegistration true
par SimpleNetwork.server.ipv4.lp forwardProtocolRegistration true
par SimpleNetwork.server.ipv4 typename "\"inet.networklayer.ipv4.Ipv4NetworkLayer\""
par SimpleNetwork.server.ipv4 forwarding false
par SimpleNetwork.server.ipv4 multicastForwarding false
par SimpleNetwork.server.ipv4 interfaceTableModule "\"SimpleNetwork.server.interfaceTable\""
par SimpleNetwork.server.ipv4 displayStringTextFormat "\"%i\""
par SimpleNetwork.server.nl typename "\"inet.common.MessageDispatcher\""
par SimpleNetwork.server.nl displayStringTextFormat "\"processed %p pk (%l)\""
par SimpleNetwork.server.nl forwardServiceRegistration true
par SimpleNetwork.server.nl forwardProtocolRegistration true
par SimpleNetwork.server.udp typename "\"inet.transportlayer.udp.Udp\""
par SimpleNetwork.server.udp interfaceTableModule "\"SimpleNetwork.server.interfaceTable\""
par SimpleNetwork.server.udp icmpModule "\"^.ipv4.icmp\""
par SimpleNetwork.server.udp icmpv6Module "\"^.ipv6.icmpv6\""
par SimpleNetwork.server.udp crcMode "\"declared\""
attr enum disabled,declared,computed
par SimpleNetwork.server.udp defaultMulticastLoop true
scalar SimpleNetwork.server.udp packetReceived:count 0
attr interpolationmode none
attr recordingmode count
attr source packetReceived
attr title "packets received, count"
scalar SimpleNetwork.server.udp packetReceived:sum(packetBytes) 0
attr interpolationmode none
attr recordingmode sum(packetBytes)
attr source packetReceived
attr title "packets received, sum(packetBytes)"
scalar SimpleNetwork.server.udp packetSent:count 0
attr interpolationmode none
attr recordingmode count
attr source packetSent
attr title "packets sent, count"
scalar SimpleNetwork.server.udp packetSent:sum(packetBytes) 0
attr interpolationmode none
attr recordingmode sum(packetBytes)
attr source packetSent
attr title "packets sent, sum(packetBytes)"
scalar SimpleNetwork.server.udp passedUpPk:count 0
attr interpolationmode none
attr recordingmode count
attr source packetSentToUpper
attr title "packets passed up, count"
scalar SimpleNetwork.server.udp droppedPkWrongPort:count 0
attr interpolationmode none
attr recordingmode count
attr source packetDropReasonIsNoPortFound(packetDropped)
attr title "packets dropped (wrong port), count"
scalar SimpleNetwork.server.udp droppedPkBadChecksum:count 0
attr interpolationmode none
attr recordingmode count
attr source packetDropReasonIsIncorrectlyReceived(packetDropped)
attr title "packets dropped (checksum error), count"
par SimpleNetwork.server.tcp.conn-1 typename "\"inet.transportlayer.tcp.TcpConnection\""
par SimpleNetwork.server.tcp typename "\"inet.transportlayer.tcp.Tcp\""
par SimpleNetwork.server.tcp crcMode "\"declared\""
attr enum declared,computed
par SimpleNetwork.server.tcp advertisedWindow 7504
par SimpleNetwork.server.tcp delayedAcksEnabled false
par SimpleNetwork.server.tcp nagleEnabled true
par SimpleNetwork.server.tcp limitedTransmitEnabled false
par SimpleNetwork.server.tcp increasedIWEnabled false
par SimpleNetwork.server.tcp sackSupport false
par SimpleNetwork.server.tcp windowScalingSupport false
par SimpleNetwork.server.tcp windowScalingFactor -1
par SimpleNetwork.server.tcp timestampSupport false
par SimpleNetwork.server.tcp mss 536
par SimpleNetwork.server.tcp msl 120s
attr unit s
par SimpleNetwork.server.tcp tcpAlgorithmClass "\"TcpReno\""
par SimpleNetwork.server.tcp useDataNotification false
par SimpleNetwork.server.tcp dupthresh 3
par SimpleNetwork.server.tcp initialSsthresh 4294967295
par SimpleNetwork.server.tcp stopOperationExtraTime 0s
attr unit s
par SimpleNetwork.server.tcp stopOperationTimeout 2s
attr unit s
par SimpleNetwork.server.tcp ecnWillingness false
par SimpleNetwork.server.tcp dctcpGamma 0.0625
par SimpleNetwork.server.tn typename "\"inet.common.MessageDispatcher\""
par SimpleNetwork.server.tn displayStringTextFormat "\"processed %p pk (%l)\""
par SimpleNetwork.server.tn forwardServiceRegistration true
par SimpleNetwork.server.tn forwardProtocolRegistration true
par SimpleNetwork.server.app[0] typename "\"inet.applications.tcpapp.TcpEchoApp\""
par SimpleNetwork.server.app[0] localAddress "\"\""
par SimpleNetwork.server.app[0] localPort 1000
par SimpleNetwork.server.app[0] serverThreadModuleType "\"inet.applications.tcpapp.TcpEchoAppThread\""
par SimpleNetwork.server.app[0] stopOperationExtraTime -1s
attr unit s
par SimpleNetwork.server.app[0] stopOperationTimeout 2s
attr unit s
par SimpleNetwork.server.app[0] echoFactor 2
par SimpleNetwork.server.app[0] echoDelay 0s
attr unit s
scalar SimpleNetwork.server.app[0] bytesRcvd 1048576
scalar SimpleNetwork.server.app[0] bytesSent 2097152
scalar SimpleNetwork.server.app[0] packetReceived:count 1689
attr interpolationmode none
attr recordingmode count
attr source packetReceived
attr title "packets received, count"
scalar SimpleNetwork.server.app[0] packetReceived:sum(packetBytes) 1048576
attr interpolationmode none
attr recordingmode sum(packetBytes)
attr source packetReceived
attr title "packets received, sum(packetBytes)"
statistic SimpleNetwork.server.app[0] endToEndDelay:histogram
field count 1957
field mean 4.2977974858703
field stddev 0.84729507923332
field min 0.00011663875
field max 4.643012403618
field sum 8410.7896798481
field sqrsum 37552.100648964
attr interpolationmode none
attr recordingmode histogram
attr source dataAge(packetReceived)
attr title "end-to-end delay"
attr unit s
bin	-inf	0
bin	0	22
bin	0.1	0
bin	0.2	0
bin	0.3	0
bin	0.4	0
bin	0.5	0
bin	0.6	0
bin	0.7	0
bin	0.8	0
bin	0.9	0
bin	1	0
bin	1.1	0
bin	1.2	0
bin	1.3	0
bin	1.4	0
bin	1.5	59
bin	1.6	0
bin	1.7	0
bin	1.8	0
bin	1.9	0
bin	2	0
bin	2.1	0
bin	2.2	0
bin	2.3	0
bin	2.4	0
bin	2.5	116
bin	2.6	0
bin	2.7	0
bin	2.8	0
bin	2.9	0
bin	3	0
bin	3.1	0
bin	3.2	0
bin	3.3	0
bin	3.4	0
bin	3.5	71
bin	3.6	0
bin	3.7	0
bin	3.8	0
bin	3.9	0
bin	4	0
bin	4.1	0
bin	4.2	0
bin	4.3	0
bin	4.4	0
bin	4.5	819
bin	4.6	870
bin	4.7	0
bin	4.8	0
bin	4.9	0
bin	5	0
bin	5.1	0
bin	5.2	0
bin	5.3	0
bin	5.4	0
bin	5.5	0
bin	5.6	0
bin	5.7	0
bin	5.8	0
statistic SimpleNetwork.server.app[0] endToEndDelay:weightedHistogram
field count 1957
field mean 4.2976736981724
field stddev 0.84742179697657
field min 0.00011663875
field max 4.643012403618
field weights 8388608
field weightedSum 36051499.965879
field sqrSumWeights 35966500864
field weightedSqrSum 160958562.42971
attr interpolationmode none
attr recordingmode weightedHistogram
attr source dataAge(packetReceived)
attr title "end-to-end delay, weightedHistogram"
attr unit s
bin	-inf	0
bin	0	94336
bin	0.1	0
bin	0.2	0
bin	0.3	0
bin	0.4	0
bin	0.5	0
bin	0.6	0
bin	0.7	0
bin	0.8	0
bin	0.9	0
bin	1	0
bin	1.1	0
bin	1.2	0
bin	1.3	0
bin	1.4	0
bin	1.5	252992
bin	1.6	0
bin	1.7	0
bin	1.8	0
bin	1.9	0
bin	2	0
bin	2.1	0
bin	2.2	0
bin	2.3	0
bin	2.4	0
bin	2.5	497408
bin	2.6	0
bin	2.7	0
bin	2.8	0
bin	2.9	0
bin	3	0
bin	3.1	0
bin	3.2	0
bin	3.3	0
bin	3.4	0
bin	3.5	304448
bin	3.6	0
bin	3.7	0
bin	3.8	0
bin	3.9	0
bin	4	0
bin	4.1	0
bin	4.2	0
bin	4.3	0
bin	4.4	0
bin	4.5	3511872
bin	4.6	3727552
bin	4.7	0
bin	4.8	0
bin	4.9	0
bin	5	0
bin	5.1	0
bin	5.2	0
bin	5.3	0
bin	5.4	0
bin	5.5	0
bin	5.6	0
bin	5.7	0
bin	5.8	0
scalar SimpleNetwork.server.app[0] packetSent:count 1689
attr interpolationmode none
attr recordingmode count
attr source packetSent
attr title "packets sent, count"
scalar SimpleNetwork.server.app[0] packetSent:sum(packetBytes) 2097152
attr interpolationmode none
attr recordingmode sum(packetBytes)
attr source packetSent
attr title "packets sent, sum(packetBytes)"
par SimpleNetwork.server.at typename "\"inet.common.MessageDispatcher\""
par SimpleNetwork.server.at displayStringTextFormat "\"processed %p pk (%l)\""
par SimpleNetwork.server.at forwardServiceRegistration true
par SimpleNetwork.server.at forwardProtocolRegistration true
par SimpleNetwork.server typename "\"inet.node.inet.StandardHost\""
par SimpleNetwork.server hasStatus false
par SimpleNetwork.server osgModel "\"\""
par SimpleNetwork.server osgModelColor "\"\""
par SimpleNetwork.server canvasImage "\"\""
par SimpleNetwork.server canvasImageColor "\"\""
par SimpleNetwork.server recordPcap false
par SimpleNetwork.server numPcapRecorders 0
par SimpleNetwork.server numLoInterfaces 1
par SimpleNetwork.server numWlanInterfaces 0
par SimpleNetwork.server numEthInterfaces 0
par SimpleNetwork.server numPppInterfaces 0
par SimpleNetwork.server numTunInterfaces 0
par SimpleNetwork.server numVirtInterfaces 0
par SimpleNetwork.server fcsMode "\"declared\""
attr enum declared,computed
par SimpleNetwork.server hasIpv4 true
par SimpleNetwork.server hasIpv6 false
par SimpleNetwork.server hasGn false
par SimpleNetwork.server forwarding false
par SimpleNetwork.server multicastForwarding false
par SimpleNetwork.server hasUdp true
par SimpleNetwork.server hasTcp true
par SimpleNetwork.server hasSctp false
par SimpleNetwork.server numApps 1
par SimpleNetwork.configurator typename "\"inet.networklayer.configurator.ipv4.Ipv4NetworkConfigurator\""
par SimpleNetwork.configurator minLinkWeight 0.001
par SimpleNetwork.configurator configureIsolatedNetworksSeparatly false
par SimpleNetwork.configurator config "<config>...</config> at content:1"
par SimpleNetwork.configurator assignAddresses true
par SimpleNetwork.configurator assignUniqueAddresses true
par SimpleNetwork.configurator assignDisjunctSubnetAddresses true
par SimpleNetwork.configurator addStaticRoutes true
par SimpleNetwork.configurator addDefaultRoutes true
par SimpleNetwork.configurator addSubnetRoutes true
par SimpleNetwork.configurator addDirectRoutes true
par SimpleNetwork.configurator optimizeRoutes true
par SimpleNetwork.configurator dumpTopology false
par SimpleNetwork.configurator dumpLinks false
par SimpleNetwork.configurator dumpAddresses false
par SimpleNetwork.configurator dumpRoutes false
par SimpleNetwork.configurator dumpConfig "\"\""
par SimpleNetwork typename "\"omnet_project.networks.SimpleNetwork\""

